/*---------------------------------------------------------------------------*\
| =========                 |                                                 |
| \\      /  F ield         | OpenFOAM: The Open Source CFD Toolbox           |
|  \\    /   O peration     | Version:  v2006                                 |
|   \\  /    A nd           | Website:  www.openfoam.com                      |
|    \\/     M anipulation  |                                                 |
\*---------------------------------------------------------------------------*/
Build  : _b45f8f6f58-20200629 OPENFOAM=2006
Arch   : "LSB;label=32;scalar=64"
Exec   : simpleFoam
Date   : Jul 11 2020
Time   : 16:01:33
Host   : LAPTOP-FT2TN4T9
PID    : 4649
I/O    : uncollated
Case   : /mnt/c/Users/mtk_m/OneDrive/Documents/OpenFOAM/2D_airfoil/airfoil
nProcs : 1
trapFpe: Floating point exception trapping enabled (FOAM_SIGFPE).
fileModificationChecking : Monitoring run-time modified files using timeStampMaster (fileModificationSkew 5, maxFileModificationPolls 20)
allowSystemOperations : Allowing user-supplied system call operations

// * * * * * * * * * * * * * * * * * * * * * * * * * * * * * * * * * * * * * //
Create time

Create mesh for time = 0


SIMPLE: convergence criteria
    field p	 tolerance 1e-05
    field U	 tolerance 1e-05
    field nuTilda	 tolerance 1e-05

Reading field p

Reading field U

Reading/calculating face flux field phi

Selecting incompressible transport model Newtonian
Selecting turbulence model type RAS
Selecting RAS turbulence model SpalartAllmaras
Selecting patchDistMethod meshWave
RAS
{
    RASModel        SpalartAllmaras;
    turbulence      on;
    printCoeffs     on;
    sigmaNut        0.66666;
    kappa           0.41;
    Cb1             0.1355;
    Cb2             0.622;
    Cw2             0.3;
    Cw3             2;
    Cv1             7.1;
    Cs              0.3;
}

No MRF models present

No finite volume options present

Starting time loop

Time = 1

smoothSolver:  Solving for Ux, Initial residual = 1, Final residual = 0.0582843, No Iterations 2
smoothSolver:  Solving for Uy, Initial residual = 1, Final residual = 0.0547822, No Iterations 2
GAMG:  Solving for p, Initial residual = 1, Final residual = 0.0712491, No Iterations 9
time step continuity errors : sum local = 0.0027031, global = 8.46043e-05, cumulative = 8.46043e-05
smoothSolver:  Solving for nuTilda, Initial residual = 1, Final residual = 0.0419103, No Iterations 2
ExecutionTime = 0.59 s  ClockTime = 0 s

--> FOAM Warning : 
    From virtual bool Foam::functionObjects::fieldSelection::checkSelection()
    in file functionObjects/fieldSelections/fieldSelection/fieldSelection.C at line 166
    Field k not found
--> FOAM Warning : 
    From virtual bool Foam::functionObjects::fieldSelection::checkSelection()
    in file functionObjects/fieldSelections/fieldSelection/fieldSelection.C at line 166
    Field omega not found
--> FOAM Warning : 
    From virtual bool Foam::functionObjects::solverFieldSelection::updateSelection()
    in file functionObjects/fieldSelections/solverFieldSelection/solverFieldSelection.C at line 85
    Valid solver fields are: 3(U nuTilda p)Time = 2

smoothSolver:  Solving for Ux, Initial residual = 0.599027, Final residual = 0.0445566, No Iterations 4
smoothSolver:  Solving for Uy, Initial residual = 0.589774, Final residual = 0.0445389, No Iterations 4
GAMG:  Solving for p, Initial residual = 0.0326938, Final residual = 0.0029851, No Iterations 4
time step continuity errors : sum local = 0.0125899, global = -0.000269576, cumulative = -0.000184972
smoothSolver:  Solving for nuTilda, Initial residual = 0.176526, Final residual = 0.00374807, No Iterations 4
ExecutionTime = 0.72 s  ClockTime = 1 s

Time = 3

smoothSolver:  Solving for Ux, Initial residual = 0.233458, Final residual = 0.0173964, No Iterations 4
smoothSolver:  Solving for Uy, Initial residual = 0.202698, Final residual = 0.0153612, No Iterations 4
GAMG:  Solving for p, Initial residual = 0.0455967, Final residual = 0.00416032, No Iterations 6
time step continuity errors : sum local = 0.014255, global = -0.000719082, cumulative = -0.000904054
smoothSolver:  Solving for nuTilda, Initial residual = 0.076707, Final residual = 0.00313009, No Iterations 4
ExecutionTime = 0.86 s  ClockTime = 1 s

Time = 4

smoothSolver:  Solving for Ux, Initial residual = 0.0436694, Final residual = 0.00273292, No Iterations 4
smoothSolver:  Solving for Uy, Initial residual = 0.0313873, Final residual = 0.00214815, No Iterations 4
GAMG:  Solving for p, Initial residual = 0.292378, Final residual = 0.0276561, No Iterations 5
time step continuity errors : sum local = 0.0131194, global = 0.00068054, cumulative = -0.000223514
smoothSolver:  Solving for nuTilda, Initial residual = 0.0500521, Final residual = 0.00264152, No Iterations 4
ExecutionTime = 0.99 s  ClockTime = 1 s

Time = 5

smoothSolver:  Solving for Ux, Initial residual = 0.243024, Final residual = 0.0180624, No Iterations 4
smoothSolver:  Solving for Uy, Initial residual = 0.185683, Final residual = 0.013978, No Iterations 4
GAMG:  Solving for p, Initial residual = 0.0575675, Final residual = 0.00372639, No Iterations 4
time step continuity errors : sum local = 0.00890444, global = 8.2185e-05, cumulative = -0.000141329
smoothSolver:  Solving for nuTilda, Initial residual = 0.0381832, Final residual = 0.00222948, No Iterations 4
ExecutionTime = 1.08 s  ClockTime = 1 s

Time = 6

smoothSolver:  Solving for Ux, Initial residual = 0.276749, Final residual = 0.0206881, No Iterations 4
smoothSolver:  Solving for Uy, Initial residual = 0.218233, Final residual = 0.0165463, No Iterations 4
GAMG:  Solving for p, Initial residual = 0.0634888, Final residual = 0.00465983, No Iterations 6
time step continuity errors : sum local = 0.00809594, global = 0.000567361, cumulative = 0.000426032
smoothSolver:  Solving for nuTilda, Initial residual = 0.0310866, Final residual = 0.00191161, No Iterations 4
ExecutionTime = 1.2 s  ClockTime = 1 s

Time = 7

smoothSolver:  Solving for Ux, Initial residual = 0.0923448, Final residual = 0.00631466, No Iterations 4
smoothSolver:  Solving for Uy, Initial residual = 0.0823191, Final residual = 0.00588887, No Iterations 4
GAMG:  Solving for p, Initial residual = 0.149688, Final residual = 0.0126019, No Iterations 5
time step continuity errors : sum local = 0.00706628, global = -0.000601216, cumulative = -0.000175185
smoothSolver:  Solving for nuTilda, Initial residual = 0.0262692, Final residual = 0.00167049, No Iterations 4
ExecutionTime = 1.33 s  ClockTime = 1 s

Time = 8

smoothSolver:  Solving for Ux, Initial residual = 0.182196, Final residual = 0.0135653, No Iterations 4
smoothSolver:  Solving for Uy, Initial residual = 0.158059, Final residual = 0.011893, No Iterations 4
GAMG:  Solving for p, Initial residual = 0.056914, Final residual = 0.00417886, No Iterations 4
time step continuity errors : sum local = 0.006664, global = -0.000146239, cumulative = -0.000321424
smoothSolver:  Solving for nuTilda, Initial residual = 0.022748, Final residual = 0.00148196, No Iterations 4
ExecutionTime = 1.44 s  ClockTime = 1 s

Time = 9

smoothSolver:  Solving for Ux, Initial residual = 0.0949327, Final residual = 0.00706088, No Iterations 4
smoothSolver:  Solving for Uy, Initial residual = 0.0736389, Final residual = 0.00559239, No Iterations 4
GAMG:  Solving for p, Initial residual = 0.056782, Final residual = 0.00441044, No Iterations 6
time step continuity errors : sum local = 0.00503065, global = -0.00059462, cumulative = -0.000916044
smoothSolver:  Solving for nuTilda, Initial residual = 0.0201211, Final residual = 0.00133422, No Iterations 4
ExecutionTime = 1.55 s  ClockTime = 1 s

Time = 10

smoothSolver:  Solving for Ux, Initial residual = 0.0423652, Final residual = 0.00299752, No Iterations 4
smoothSolver:  Solving for Uy, Initial residual = 0.0317223, Final residual = 0.00229272, No Iterations 4
GAMG:  Solving for p, Initial residual = 0.238172, Final residual = 0.0167453, No Iterations 5
time step continuity errors : sum local = 0.00415427, global = 0.000630824, cumulative = -0.00028522
smoothSolver:  Solving for nuTilda, Initial residual = 0.0180975, Final residual = 0.00121615, No Iterations 4
ExecutionTime = 1.68 s  ClockTime = 2 s

Time = 11

smoothSolver:  Solving for Ux, Initial residual = 0.106721, Final residual = 0.00797062, No Iterations 4
smoothSolver:  Solving for Uy, Initial residual = 0.0828202, Final residual = 0.00621967, No Iterations 4
GAMG:  Solving for p, Initial residual = 0.0769697, Final residual = 0.00593996, No Iterations 4
time step continuity errors : sum local = 0.00481162, global = 0.000126702, cumulative = -0.000158517
smoothSolver:  Solving for nuTilda, Initial residual = 0.0164721, Final residual = 0.00111849, No Iterations 4
ExecutionTime = 1.78 s  ClockTime = 2 s

Time = 12

smoothSolver:  Solving for Ux, Initial residual = 0.0742268, Final residual = 0.00553205, No Iterations 4
smoothSolver:  Solving for Uy, Initial residual = 0.0564579, Final residual = 0.00428027, No Iterations 4
GAMG:  Solving for p, Initial residual = 0.0839411, Final residual = 0.00639635, No Iterations 6
time step continuity errors : sum local = 0.00316369, global = 0.000518612, cumulative = 0.000360095
smoothSolver:  Solving for nuTilda, Initial residual = 0.0151261, Final residual = 0.00103575, No Iterations 4
ExecutionTime = 1.91 s  ClockTime = 2 s

Time = 13

smoothSolver:  Solving for Ux, Initial residual = 0.0421526, Final residual = 0.00301265, No Iterations 4
smoothSolver:  Solving for Uy, Initial residual = 0.0348021, Final residual = 0.00255791, No Iterations 4
GAMG:  Solving for p, Initial residual = 0.110399, Final residual = 0.00697731, No Iterations 5
time step continuity errors : sum local = 0.00244455, global = -0.000470079, cumulative = -0.000109984
smoothSolver:  Solving for nuTilda, Initial residual = 0.0139819, Final residual = 0.00096411, No Iterations 4
ExecutionTime = 2.01 s  ClockTime = 2 s

Time = 14

smoothSolver:  Solving for Ux, Initial residual = 0.0680608, Final residual = 0.00506232, No Iterations 4
smoothSolver:  Solving for Uy, Initial residual = 0.0544406, Final residual = 0.00408826, No Iterations 4
GAMG:  Solving for p, Initial residual = 0.0610491, Final residual = 0.00509905, No Iterations 4
time step continuity errors : sum local = 0.00335732, global = -9.54822e-05, cumulative = -0.000205466
smoothSolver:  Solving for nuTilda, Initial residual = 0.0130049, Final residual = 0.000901651, No Iterations 4
ExecutionTime = 2.12 s  ClockTime = 2 s

Time = 15

smoothSolver:  Solving for Ux, Initial residual = 0.0364082, Final residual = 0.0026764, No Iterations 4
smoothSolver:  Solving for Uy, Initial residual = 0.0250626, Final residual = 0.00189433, No Iterations 4
GAMG:  Solving for p, Initial residual = 0.0567303, Final residual = 0.00433173, No Iterations 6
time step continuity errors : sum local = 0.00196302, global = -0.000382469, cumulative = -0.000587935
smoothSolver:  Solving for nuTilda, Initial residual = 0.0121604, Final residual = 0.000846864, No Iterations 4
ExecutionTime = 2.23 s  ClockTime = 2 s

Time = 16

smoothSolver:  Solving for Ux, Initial residual = 0.0254483, Final residual = 0.00185197, No Iterations 4
smoothSolver:  Solving for Uy, Initial residual = 0.019087, Final residual = 0.00140118, No Iterations 4
GAMG:  Solving for p, Initial residual = 0.349348, Final residual = 0.03392, No Iterations 4
time step continuity errors : sum local = 0.00249751, global = -0.000362706, cumulative = -0.000950641
smoothSolver:  Solving for nuTilda, Initial residual = 0.011434, Final residual = 0.000799168, No Iterations 4
ExecutionTime = 2.33 s  ClockTime = 2 s

Time = 17

smoothSolver:  Solving for Ux, Initial residual = 0.0413236, Final residual = 0.00309186, No Iterations 4
smoothSolver:  Solving for Uy, Initial residual = 0.0317474, Final residual = 0.00237969, No Iterations 4
GAMG:  Solving for p, Initial residual = 0.112171, Final residual = 0.0103163, No Iterations 4
time step continuity errors : sum local = 0.00238847, global = -0.000144074, cumulative = -0.00109472
smoothSolver:  Solving for nuTilda, Initial residual = 0.0107952, Final residual = 0.000756709, No Iterations 4
ExecutionTime = 2.45 s  ClockTime = 2 s

Time = 18

smoothSolver:  Solving for Ux, Initial residual = 0.0232271, Final residual = 0.00171246, No Iterations 4
smoothSolver:  Solving for Uy, Initial residual = 0.0166189, Final residual = 0.00124294, No Iterations 4
GAMG:  Solving for p, Initial residual = 0.14805, Final residual = 0.00812964, No Iterations 6
time step continuity errors : sum local = 0.000889669, global = 1.2335e-05, cumulative = -0.00108238
smoothSolver:  Solving for nuTilda, Initial residual = 0.0102236, Final residual = 0.000718429, No Iterations 4
ExecutionTime = 2.59 s  ClockTime = 2 s

Time = 19

smoothSolver:  Solving for Ux, Initial residual = 0.0196367, Final residual = 0.00141562, No Iterations 4
smoothSolver:  Solving for Uy, Initial residual = 0.0154679, Final residual = 0.00114314, No Iterations 4
GAMG:  Solving for p, Initial residual = 0.0766858, Final residual = 0.00653139, No Iterations 4
time step continuity errors : sum local = 0.00141122, global = 8.76416e-05, cumulative = -0.000994739
smoothSolver:  Solving for nuTilda, Initial residual = 0.00970422, Final residual = 0.000683484, No Iterations 4
ExecutionTime = 2.69 s  ClockTime = 3 s

Time = 20

smoothSolver:  Solving for Ux, Initial residual = 0.0262727, Final residual = 0.00193993, No Iterations 4
smoothSolver:  Solving for Uy, Initial residual = 0.0196132, Final residual = 0.00147197, No Iterations 4
GAMG:  Solving for p, Initial residual = 0.0538829, Final residual = 0.00489992, No Iterations 4
time step continuity errors : sum local = 0.00149576, global = 4.60262e-05, cumulative = -0.000948712
smoothSolver:  Solving for nuTilda, Initial residual = 0.00923238, Final residual = 0.000651568, No Iterations 4
ExecutionTime = 2.79 s  ClockTime = 3 s

Time = 21

smoothSolver:  Solving for Ux, Initial residual = 0.0147463, Final residual = 0.00106311, No Iterations 4
smoothSolver:  Solving for Uy, Initial residual = 0.00901839, Final residual = 0.000670617, No Iterations 4
GAMG:  Solving for p, Initial residual = 0.0440212, Final residual = 0.00411356, No Iterations 5
time step continuity errors : sum local = 0.000964027, global = 1.09725e-05, cumulative = -0.00093774
smoothSolver:  Solving for nuTilda, Initial residual = 0.00880546, Final residual = 0.000622543, No Iterations 4
ExecutionTime = 2.92 s  ClockTime = 3 s

Time = 22

smoothSolver:  Solving for Ux, Initial residual = 0.0124332, Final residual = 0.000914379, No Iterations 4
smoothSolver:  Solving for Uy, Initial residual = 0.0092059, Final residual = 0.000677043, No Iterations 4
GAMG:  Solving for p, Initial residual = 0.112822, Final residual = 0.00959691, No Iterations 4
time step continuity errors : sum local = 0.000919938, global = -5.22302e-05, cumulative = -0.00098997
smoothSolver:  Solving for nuTilda, Initial residual = 0.00841841, Final residual = 0.00059606, No Iterations 4
ExecutionTime = 3.03 s  ClockTime = 3 s

Time = 23

smoothSolver:  Solving for Ux, Initial residual = 0.015479, Final residual = 0.0011594, No Iterations 4
smoothSolver:  Solving for Uy, Initial residual = 0.0121057, Final residual = 0.000902638, No Iterations 4
GAMG:  Solving for p, Initial residual = 0.251488, Final residual = 0.0230968, No Iterations 4
time step continuity errors : sum local = 0.000954915, global = -3.37022e-05, cumulative = -0.00102367
smoothSolver:  Solving for nuTilda, Initial residual = 0.00806382, Final residual = 0.00057162, No Iterations 4
ExecutionTime = 3.15 s  ClockTime = 3 s

Time = 24

smoothSolver:  Solving for Ux, Initial residual = 0.00873587, Final residual = 0.00063233, No Iterations 4
smoothSolver:  Solving for Uy, Initial residual = 0.00667167, Final residual = 0.000486946, No Iterations 4
GAMG:  Solving for p, Initial residual = 0.0893289, Final residual = 0.00768194, No Iterations 5
time step continuity errors : sum local = 0.000580427, global = 1.04779e-05, cumulative = -0.00101319
smoothSolver:  Solving for nuTilda, Initial residual = 0.00773433, Final residual = 0.00054881, No Iterations 4
ExecutionTime = 3.28 s  ClockTime = 3 s

Time = 25

smoothSolver:  Solving for Ux, Initial residual = 0.00936654, Final residual = 0.000663511, No Iterations 4
smoothSolver:  Solving for Uy, Initial residual = 0.0072008, Final residual = 0.000530472, No Iterations 4
GAMG:  Solving for p, Initial residual = 0.0458415, Final residual = 0.00394899, No Iterations 4
time step continuity errors : sum local = 0.000611395, global = 2.66593e-05, cumulative = -0.000986535
smoothSolver:  Solving for nuTilda, Initial residual = 0.00742584, Final residual = 0.000527419, No Iterations 4
ExecutionTime = 3.39 s  ClockTime = 3 s

Time = 26

smoothSolver:  Solving for Ux, Initial residual = 0.01128, Final residual = 0.000816911, No Iterations 4
smoothSolver:  Solving for Uy, Initial residual = 0.00795241, Final residual = 0.00059226, No Iterations 4
GAMG:  Solving for p, Initial residual = 0.035862, Final residual = 0.00314811, No Iterations 4
time step continuity errors : sum local = 0.000591299, global = 9.3609e-06, cumulative = -0.000977174
smoothSolver:  Solving for nuTilda, Initial residual = 0.00713797, Final residual = 0.000507407, No Iterations 4
ExecutionTime = 3.5 s  ClockTime = 3 s

Time = 27

smoothSolver:  Solving for Ux, Initial residual = 0.00765086, Final residual = 0.000543761, No Iterations 4
smoothSolver:  Solving for Uy, Initial residual = 0.00453103, Final residual = 0.000328815, No Iterations 4
GAMG:  Solving for p, Initial residual = 0.0271527, Final residual = 0.00214891, No Iterations 5
time step continuity errors : sum local = 0.000362294, global = 2.72957e-05, cumulative = -0.000949878
smoothSolver:  Solving for nuTilda, Initial residual = 0.00687028, Final residual = 0.000488754, No Iterations 4
ExecutionTime = 3.62 s  ClockTime = 4 s

Time = 28

smoothSolver:  Solving for Ux, Initial residual = 0.00692297, Final residual = 0.000502751, No Iterations 4
smoothSolver:  Solving for Uy, Initial residual = 0.00484241, Final residual = 0.000351381, No Iterations 4
GAMG:  Solving for p, Initial residual = 0.0384413, Final residual = 0.0032184, No Iterations 4
time step continuity errors : sum local = 0.000396659, global = -2.5693e-05, cumulative = -0.000975571
smoothSolver:  Solving for nuTilda, Initial residual = 0.00662114, Final residual = 0.000471312, No Iterations 4
ExecutionTime = 3.73 s  ClockTime = 4 s

Time = 29

smoothSolver:  Solving for Ux, Initial residual = 0.00694305, Final residual = 0.000507572, No Iterations 4
smoothSolver:  Solving for Uy, Initial residual = 0.00544577, Final residual = 0.000397815, No Iterations 4
GAMG:  Solving for p, Initial residual = 0.0422848, Final residual = 0.00387591, No Iterations 4
time step continuity errors : sum local = 0.000399673, global = -2.86341e-05, cumulative = -0.00100421
smoothSolver:  Solving for nuTilda, Initial residual = 0.00638751, Final residual = 0.00045487, No Iterations 4
ExecutionTime = 3.84 s  ClockTime = 4 s

Time = 30

smoothSolver:  Solving for Ux, Initial residual = 0.00505461, Final residual = 0.000349413, No Iterations 4
smoothSolver:  Solving for Uy, Initial residual = 0.00397405, Final residual = 0.000284564, No Iterations 4
GAMG:  Solving for p, Initial residual = 0.0280222, Final residual = 0.00232515, No Iterations 5
time step continuity errors : sum local = 0.000259598, global = 4.37614e-05, cumulative = -0.000960444
smoothSolver:  Solving for nuTilda, Initial residual = 0.00616658, Final residual = 0.000439288, No Iterations 4
ExecutionTime = 3.96 s  ClockTime = 4 s

Time = 31

smoothSolver:  Solving for Ux, Initial residual = 0.00562703, Final residual = 0.0003863, No Iterations 4
smoothSolver:  Solving for Uy, Initial residual = 0.00428032, Final residual = 0.000310245, No Iterations 4
GAMG:  Solving for p, Initial residual = 0.0239588, Final residual = 0.00190254, No Iterations 4
time step continuity errors : sum local = 0.000259683, global = 5.51422e-06, cumulative = -0.00095493
smoothSolver:  Solving for nuTilda, Initial residual = 0.00595777, Final residual = 0.000424516, No Iterations 4
ExecutionTime = 4.08 s  ClockTime = 4 s

Time = 32

smoothSolver:  Solving for Ux, Initial residual = 0.00616893, Final residual = 0.000431381, No Iterations 4
smoothSolver:  Solving for Uy, Initial residual = 0.00426111, Final residual = 0.000310091, No Iterations 4
GAMG:  Solving for p, Initial residual = 0.0201965, Final residual = 0.00162036, No Iterations 4
time step continuity errors : sum local = 0.000241557, global = -8.66063e-06, cumulative = -0.00096359
smoothSolver:  Solving for nuTilda, Initial residual = 0.0057615, Final residual = 0.000410588, No Iterations 4
ExecutionTime = 4.2 s  ClockTime = 4 s

Time = 33

smoothSolver:  Solving for Ux, Initial residual = 0.00545835, Final residual = 0.000382137, No Iterations 4
smoothSolver:  Solving for Uy, Initial residual = 0.00318012, Final residual = 0.000225994, No Iterations 4
GAMG:  Solving for p, Initial residual = 0.0159108, Final residual = 0.00117144, No Iterations 5
time step continuity errors : sum local = 0.000170236, global = 3.80867e-05, cumulative = -0.000925504
smoothSolver:  Solving for nuTilda, Initial residual = 0.00557791, Final residual = 0.000397527, No Iterations 4
ExecutionTime = 4.32 s  ClockTime = 4 s

Time = 34

smoothSolver:  Solving for Ux, Initial residual = 0.00527716, Final residual = 0.000373395, No Iterations 4
smoothSolver:  Solving for Uy, Initial residual = 0.00330838, Final residual = 0.000235108, No Iterations 4
GAMG:  Solving for p, Initial residual = 0.0177039, Final residual = 0.00129917, No Iterations 4
time step continuity errors : sum local = 0.000170707, global = -2.06252e-05, cumulative = -0.000946129
smoothSolver:  Solving for nuTilda, Initial residual = 0.00540582, Final residual = 0.00038524, No Iterations 4
ExecutionTime = 4.45 s  ClockTime = 4 s

Time = 35

smoothSolver:  Solving for Ux, Initial residual = 0.00503034, Final residual = 0.000353778, No Iterations 4
smoothSolver:  Solving for Uy, Initial residual = 0.00345786, Final residual = 0.000245944, No Iterations 4
GAMG:  Solving for p, Initial residual = 0.0169921, Final residual = 0.00153238, No Iterations 4
time step continuity errors : sum local = 0.000189579, global = -3.41576e-05, cumulative = -0.000980286
smoothSolver:  Solving for nuTilda, Initial residual = 0.0052434, Final residual = 0.000373612, No Iterations 4
ExecutionTime = 4.56 s  ClockTime = 5 s

Time = 36

smoothSolver:  Solving for Ux, Initial residual = 0.004584, Final residual = 0.000313569, No Iterations 4
smoothSolver:  Solving for Uy, Initial residual = 0.00319337, Final residual = 0.000225519, No Iterations 4
GAMG:  Solving for p, Initial residual = 0.014015, Final residual = 0.00104638, No Iterations 5
time step continuity errors : sum local = 0.000130575, global = 3.37572e-05, cumulative = -0.000946529
smoothSolver:  Solving for nuTilda, Initial residual = 0.00508919, Final residual = 0.000362558, No Iterations 4
ExecutionTime = 4.67 s  ClockTime = 5 s

Time = 37

smoothSolver:  Solving for Ux, Initial residual = 0.00476189, Final residual = 0.000323541, No Iterations 4
smoothSolver:  Solving for Uy, Initial residual = 0.00325754, Final residual = 0.000230494, No Iterations 4
GAMG:  Solving for p, Initial residual = 0.0135165, Final residual = 0.000939558, No Iterations 4
time step continuity errors : sum local = 0.000123738, global = -1.60614e-05, cumulative = -0.000962591
smoothSolver:  Solving for nuTilda, Initial residual = 0.00494254, Final residual = 0.000352007, No Iterations 4
ExecutionTime = 4.78 s  ClockTime = 5 s

Time = 38

smoothSolver:  Solving for Ux, Initial residual = 0.00502318, Final residual = 0.000345558, No Iterations 4
smoothSolver:  Solving for Uy, Initial residual = 0.00317645, Final residual = 0.00022437, No Iterations 4
GAMG:  Solving for p, Initial residual = 0.0121833, Final residual = 0.00094075, No Iterations 4
time step continuity errors : sum local = 0.000128886, global = -2.79345e-05, cumulative = -0.000990525
smoothSolver:  Solving for nuTilda, Initial residual = 0.00480262, Final residual = 0.000341932, No Iterations 4
ExecutionTime = 4.89 s  ClockTime = 5 s

Time = 39

smoothSolver:  Solving for Ux, Initial residual = 0.00496626, Final residual = 0.000343906, No Iterations 4
smoothSolver:  Solving for Uy, Initial residual = 0.00288215, Final residual = 0.000201535, No Iterations 4
GAMG:  Solving for p, Initial residual = 0.0107673, Final residual = 0.00105444, No Iterations 4
time step continuity errors : sum local = 0.000144878, global = -3.70342e-05, cumulative = -0.00102756
smoothSolver:  Solving for nuTilda, Initial residual = 0.00466916, Final residual = 0.000332305, No Iterations 4
ExecutionTime = 5.02 s  ClockTime = 5 s

Time = 40

smoothSolver:  Solving for Ux, Initial residual = 0.00489968, Final residual = 0.000340284, No Iterations 4
smoothSolver:  Solving for Uy, Initial residual = 0.00291006, Final residual = 0.000203369, No Iterations 4
GAMG:  Solving for p, Initial residual = 0.0110268, Final residual = 0.000711426, No Iterations 4
time step continuity errors : sum local = 9.529e-05, global = -2.43975e-05, cumulative = -0.00105196
smoothSolver:  Solving for nuTilda, Initial residual = 0.0045416, Final residual = 0.000323097, No Iterations 4
ExecutionTime = 5.13 s  ClockTime = 5 s

Time = 41

smoothSolver:  Solving for Ux, Initial residual = 0.0048079, Final residual = 0.000332245, No Iterations 4
smoothSolver:  Solving for Uy, Initial residual = 0.0029907, Final residual = 0.000209064, No Iterations 4
GAMG:  Solving for p, Initial residual = 0.010636, Final residual = 0.000770725, No Iterations 4
time step continuity errors : sum local = 0.000100544, global = -2.66834e-05, cumulative = -0.00107864
smoothSolver:  Solving for nuTilda, Initial residual = 0.00441928, Final residual = 0.000314264, No Iterations 4
ExecutionTime = 5.24 s  ClockTime = 5 s

Time = 42

smoothSolver:  Solving for Ux, Initial residual = 0.00470971, Final residual = 0.000322291, No Iterations 4
smoothSolver:  Solving for Uy, Initial residual = 0.00295207, Final residual = 0.000205594, No Iterations 4
GAMG:  Solving for p, Initial residual = 0.00995013, Final residual = 0.000875621, No Iterations 4
time step continuity errors : sum local = 0.000113241, global = -2.69012e-05, cumulative = -0.00110554
smoothSolver:  Solving for nuTilda, Initial residual = 0.00430187, Final residual = 0.000305774, No Iterations 4
ExecutionTime = 5.36 s  ClockTime = 5 s

Time = 43

smoothSolver:  Solving for Ux, Initial residual = 0.00473072, Final residual = 0.000322197, No Iterations 4
smoothSolver:  Solving for Uy, Initial residual = 0.00292158, Final residual = 0.000202843, No Iterations 4
GAMG:  Solving for p, Initial residual = 0.00983323, Final residual = 0.000693007, No Iterations 4
time step continuity errors : sum local = 9.07714e-05, global = -2.00943e-05, cumulative = -0.00112564
smoothSolver:  Solving for nuTilda, Initial residual = 0.00418906, Final residual = 0.000297613, No Iterations 4
ExecutionTime = 5.47 s  ClockTime = 6 s

Time = 44

smoothSolver:  Solving for Ux, Initial residual = 0.00483576, Final residual = 0.000331156, No Iterations 4
smoothSolver:  Solving for Uy, Initial residual = 0.00288271, Final residual = 0.000199652, No Iterations 4
GAMG:  Solving for p, Initial residual = 0.00946141, Final residual = 0.000921138, No Iterations 3
time step continuity errors : sum local = 0.000122901, global = 3.18541e-05, cumulative = -0.00109378
smoothSolver:  Solving for nuTilda, Initial residual = 0.00408087, Final residual = 0.000289774, No Iterations 4
ExecutionTime = 5.57 s  ClockTime = 6 s

Time = 45

smoothSolver:  Solving for Ux, Initial residual = 0.00487037, Final residual = 0.000334906, No Iterations 4
smoothSolver:  Solving for Uy, Initial residual = 0.00284299, Final residual = 0.000196684, No Iterations 4
GAMG:  Solving for p, Initial residual = 0.00915952, Final residual = 0.000860417, No Iterations 3
time step continuity errors : sum local = 0.000115659, global = 2.96458e-05, cumulative = -0.00106414
smoothSolver:  Solving for nuTilda, Initial residual = 0.00397732, Final residual = 0.000282258, No Iterations 4
ExecutionTime = 5.68 s  ClockTime = 6 s

Time = 46

smoothSolver:  Solving for Ux, Initial residual = 0.00487388, Final residual = 0.000335777, No Iterations 4
smoothSolver:  Solving for Uy, Initial residual = 0.00284629, Final residual = 0.000196952, No Iterations 4
GAMG:  Solving for p, Initial residual = 0.0091714, Final residual = 0.000658313, No Iterations 3
time step continuity errors : sum local = 8.83316e-05, global = 2.20318e-05, cumulative = -0.0010421
smoothSolver:  Solving for nuTilda, Initial residual = 0.00387797, Final residual = 0.00027504, No Iterations 4
ExecutionTime = 5.79 s  ClockTime = 6 s

Time = 47

smoothSolver:  Solving for Ux, Initial residual = 0.00485211, Final residual = 0.000333729, No Iterations 4
smoothSolver:  Solving for Uy, Initial residual = 0.00286635, Final residual = 0.000198173, No Iterations 4
GAMG:  Solving for p, Initial residual = 0.00903313, Final residual = 0.000529492, No Iterations 3
time step continuity errors : sum local = 7.05419e-05, global = 1.90166e-05, cumulative = -0.00102309
smoothSolver:  Solving for nuTilda, Initial residual = 0.0037825, Final residual = 0.000268093, No Iterations 4
ExecutionTime = 5.88 s  ClockTime = 6 s

Time = 48

smoothSolver:  Solving for Ux, Initial residual = 0.00481086, Final residual = 0.000329687, No Iterations 4
smoothSolver:  Solving for Uy, Initial residual = 0.00286704, Final residual = 0.000197862, No Iterations 4
GAMG:  Solving for p, Initial residual = 0.00879439, Final residual = 0.000745272, No Iterations 3
time step continuity errors : sum local = 9.87112e-05, global = 2.42129e-05, cumulative = -0.000998875
smoothSolver:  Solving for nuTilda, Initial residual = 0.00369066, Final residual = 0.000261402, No Iterations 4
ExecutionTime = 5.98 s  ClockTime = 6 s

Time = 49

smoothSolver:  Solving for Ux, Initial residual = 0.00477951, Final residual = 0.000326464, No Iterations 4
smoothSolver:  Solving for Uy, Initial residual = 0.00284355, Final residual = 0.00019567, No Iterations 4
GAMG:  Solving for p, Initial residual = 0.00873891, Final residual = 0.000819245, No Iterations 3
time step continuity errors : sum local = 0.000108327, global = 2.27377e-05, cumulative = -0.000976137
smoothSolver:  Solving for nuTilda, Initial residual = 0.00360247, Final residual = 0.000254965, No Iterations 4
ExecutionTime = 6.11 s  ClockTime = 6 s

Time = 50

smoothSolver:  Solving for Ux, Initial residual = 0.00479163, Final residual = 0.000327456, No Iterations 4
smoothSolver:  Solving for Uy, Initial residual = 0.00282048, Final residual = 0.000193579, No Iterations 4
GAMG:  Solving for p, Initial residual = 0.00875089, Final residual = 0.000722016, No Iterations 3
time step continuity errors : sum local = 9.58529e-05, global = 1.94185e-05, cumulative = -0.000956718
smoothSolver:  Solving for nuTilda, Initial residual = 0.00351776, Final residual = 0.000248771, No Iterations 4
ExecutionTime = 6.22 s  ClockTime = 6 s

Time = 51

smoothSolver:  Solving for Ux, Initial residual = 0.00482128, Final residual = 0.000330432, No Iterations 4
smoothSolver:  Solving for Uy, Initial residual = 0.00281188, Final residual = 0.000192823, No Iterations 4
GAMG:  Solving for p, Initial residual = 0.00866616, Final residual = 0.000610779, No Iterations 3
time step continuity errors : sum local = 8.15813e-05, global = 1.93562e-05, cumulative = -0.000937362
smoothSolver:  Solving for nuTilda, Initial residual = 0.00343623, Final residual = 0.000242807, No Iterations 4
ExecutionTime = 6.33 s  ClockTime = 6 s

Time = 52

smoothSolver:  Solving for Ux, Initial residual = 0.00483859, Final residual = 0.000332286, No Iterations 4
smoothSolver:  Solving for Uy, Initial residual = 0.00281512, Final residual = 0.000193101, No Iterations 4
GAMG:  Solving for p, Initial residual = 0.0085644, Final residual = 0.000524467, No Iterations 3
time step continuity errors : sum local = 7.03548e-05, global = 1.72118e-05, cumulative = -0.00092015
smoothSolver:  Solving for nuTilda, Initial residual = 0.00335771, Final residual = 0.000237064, No Iterations 4
ExecutionTime = 6.44 s  ClockTime = 7 s

Time = 53

smoothSolver:  Solving for Ux, Initial residual = 0.00483751, Final residual = 0.000332265, No Iterations 4
smoothSolver:  Solving for Uy, Initial residual = 0.00281966, Final residual = 0.000193348, No Iterations 4
GAMG:  Solving for p, Initial residual = 0.00850633, Final residual = 0.000727115, No Iterations 2
time step continuity errors : sum local = 9.76823e-05, global = -9.91658e-06, cumulative = -0.000930067
smoothSolver:  Solving for nuTilda, Initial residual = 0.00328205, Final residual = 0.000231519, No Iterations 4
ExecutionTime = 6.53 s  ClockTime = 7 s

Time = 54

smoothSolver:  Solving for Ux, Initial residual = 0.00480878, Final residual = 0.000329904, No Iterations 4
smoothSolver:  Solving for Uy, Initial residual = 0.00281209, Final residual = 0.000192496, No Iterations 4
GAMG:  Solving for p, Initial residual = 0.00848826, Final residual = 0.000797781, No Iterations 2
time step continuity errors : sum local = 0.00010727, global = -1.22956e-05, cumulative = -0.000942362
smoothSolver:  Solving for nuTilda, Initial residual = 0.0032091, Final residual = 0.00022617, No Iterations 4
ExecutionTime = 6.63 s  ClockTime = 7 s

Time = 55

smoothSolver:  Solving for Ux, Initial residual = 0.00478272, Final residual = 0.0003277, No Iterations 4
smoothSolver:  Solving for Uy, Initial residual = 0.00280822, Final residual = 0.000191943, No Iterations 4
GAMG:  Solving for p, Initial residual = 0.00852763, Final residual = 0.000552587, No Iterations 3
time step continuity errors : sum local = 7.42698e-05, global = 1.33693e-05, cumulative = -0.000928993
smoothSolver:  Solving for nuTilda, Initial residual = 0.00313861, Final residual = 0.000221001, No Iterations 4
ExecutionTime = 6.74 s  ClockTime = 7 s

Time = 56

smoothSolver:  Solving for Ux, Initial residual = 0.00477707, Final residual = 0.000327003, No Iterations 4
smoothSolver:  Solving for Uy, Initial residual = 0.00281599, Final residual = 0.000192359, No Iterations 4
GAMG:  Solving for p, Initial residual = 0.00849804, Final residual = 0.000574584, No Iterations 3
time step continuity errors : sum local = 7.7001e-05, global = 1.2751e-05, cumulative = -0.000916242
smoothSolver:  Solving for nuTilda, Initial residual = 0.00307039, Final residual = 0.000215994, No Iterations 4
ExecutionTime = 6.83 s  ClockTime = 7 s

Time = 57

smoothSolver:  Solving for Ux, Initial residual = 0.00477394, Final residual = 0.000326923, No Iterations 4
smoothSolver:  Solving for Uy, Initial residual = 0.00281334, Final residual = 0.000192033, No Iterations 4
GAMG:  Solving for p, Initial residual = 0.00866219, Final residual = 0.000847314, No Iterations 2
time step continuity errors : sum local = 0.000113509, global = -1.8491e-05, cumulative = -0.000934733
smoothSolver:  Solving for nuTilda, Initial residual = 0.00300443, Final residual = 0.000211146, No Iterations 4
ExecutionTime = 6.91 s  ClockTime = 7 s

Time = 58

smoothSolver:  Solving for Ux, Initial residual = 0.00475191, Final residual = 0.000325651, No Iterations 4
smoothSolver:  Solving for Uy, Initial residual = 0.00279693, Final residual = 0.000190629, No Iterations 4
GAMG:  Solving for p, Initial residual = 0.00862553, Final residual = 0.000590765, No Iterations 3
time step continuity errors : sum local = 7.94255e-05, global = 1.59549e-05, cumulative = -0.000918778
smoothSolver:  Solving for nuTilda, Initial residual = 0.00294062, Final residual = 0.000206458, No Iterations 4
ExecutionTime = 7.04 s  ClockTime = 7 s

Time = 59

smoothSolver:  Solving for Ux, Initial residual = 0.00475708, Final residual = 0.000326455, No Iterations 4
smoothSolver:  Solving for Uy, Initial residual = 0.00279225, Final residual = 0.0001903, No Iterations 4
GAMG:  Solving for p, Initial residual = 0.00856635, Final residual = 0.000733584, No Iterations 2
time step continuity errors : sum local = 9.89341e-05, global = -1.60739e-05, cumulative = -0.000934852
smoothSolver:  Solving for nuTilda, Initial residual = 0.00287889, Final residual = 0.000201925, No Iterations 4
ExecutionTime = 7.13 s  ClockTime = 7 s

Time = 60

smoothSolver:  Solving for Ux, Initial residual = 0.00473988, Final residual = 0.000325269, No Iterations 4
smoothSolver:  Solving for Uy, Initial residual = 0.00278092, Final residual = 0.000189346, No Iterations 4
GAMG:  Solving for p, Initial residual = 0.00855266, Final residual = 0.000670608, No Iterations 2
time step continuity errors : sum local = 9.07654e-05, global = -9.22582e-06, cumulative = -0.000944078
smoothSolver:  Solving for nuTilda, Initial residual = 0.00281906, Final residual = 0.000197531, No Iterations 4
ExecutionTime = 7.22 s  ClockTime = 7 s

Time = 61

smoothSolver:  Solving for Ux, Initial residual = 0.00472315, Final residual = 0.000323942, No Iterations 4
smoothSolver:  Solving for Uy, Initial residual = 0.00277249, Final residual = 0.000188557, No Iterations 4
GAMG:  Solving for p, Initial residual = 0.00857998, Final residual = 0.000747788, No Iterations 2
time step continuity errors : sum local = 0.000101446, global = -8.59195e-06, cumulative = -0.00095267
smoothSolver:  Solving for nuTilda, Initial residual = 0.002761, Final residual = 0.000193266, No Iterations 4
ExecutionTime = 7.34 s  ClockTime = 8 s

Time = 62

smoothSolver:  Solving for Ux, Initial residual = 0.00470862, Final residual = 0.000322748, No Iterations 4
smoothSolver:  Solving for Uy, Initial residual = 0.00276773, Final residual = 0.000188034, No Iterations 4
GAMG:  Solving for p, Initial residual = 0.00860375, Final residual = 0.000832893, No Iterations 2
time step continuity errors : sum local = 0.000113175, global = -1.06933e-05, cumulative = -0.000963363
smoothSolver:  Solving for nuTilda, Initial residual = 0.00270452, Final residual = 0.000189122, No Iterations 4
ExecutionTime = 7.45 s  ClockTime = 8 s

Time = 63

smoothSolver:  Solving for Ux, Initial residual = 0.00469405, Final residual = 0.000321647, No Iterations 4
smoothSolver:  Solving for Uy, Initial residual = 0.00276736, Final residual = 0.000187912, No Iterations 4
GAMG:  Solving for p, Initial residual = 0.00865024, Final residual = 0.000535559, No Iterations 3
time step continuity errors : sum local = 7.28678e-05, global = 1.10614e-05, cumulative = -0.000952302
smoothSolver:  Solving for nuTilda, Initial residual = 0.0026496, Final residual = 0.000185092, No Iterations 4
ExecutionTime = 7.58 s  ClockTime = 8 s

Time = 64

smoothSolver:  Solving for Ux, Initial residual = 0.00469011, Final residual = 0.000321513, No Iterations 4
smoothSolver:  Solving for Uy, Initial residual = 0.00278014, Final residual = 0.00018893, No Iterations 4
GAMG:  Solving for p, Initial residual = 0.00869752, Final residual = 0.000667797, No Iterations 2
time step continuity errors : sum local = 9.08377e-05, global = -9.04528e-06, cumulative = -0.000961347
smoothSolver:  Solving for nuTilda, Initial residual = 0.00259601, Final residual = 0.000181163, No Iterations 4
ExecutionTime = 7.67 s  ClockTime = 8 s

Time = 65

smoothSolver:  Solving for Ux, Initial residual = 0.00465771, Final residual = 0.000319248, No Iterations 4
smoothSolver:  Solving for Uy, Initial residual = 0.00277052, Final residual = 0.000188113, No Iterations 4
GAMG:  Solving for p, Initial residual = 0.00867465, Final residual = 0.000863313, No Iterations 1
time step continuity errors : sum local = 0.000117663, global = 1.55206e-05, cumulative = -0.000945827
smoothSolver:  Solving for nuTilda, Initial residual = 0.00254384, Final residual = 0.000177341, No Iterations 4
ExecutionTime = 7.76 s  ClockTime = 8 s

Time = 66

smoothSolver:  Solving for Ux, Initial residual = 0.00460765, Final residual = 0.000315502, No Iterations 4
smoothSolver:  Solving for Uy, Initial residual = 0.00275452, Final residual = 0.000186679, No Iterations 4
GAMG:  Solving for p, Initial residual = 0.00865493, Final residual = 0.000645044, No Iterations 3
time step continuity errors : sum local = 8.80727e-05, global = 1.5781e-05, cumulative = -0.000930046
smoothSolver:  Solving for nuTilda, Initial residual = 0.00249315, Final residual = 0.000173632, No Iterations 4
ExecutionTime = 7.87 s  ClockTime = 8 s

Time = 67

smoothSolver:  Solving for Ux, Initial residual = 0.00461467, Final residual = 0.000316318, No Iterations 4
smoothSolver:  Solving for Uy, Initial residual = 0.00274509, Final residual = 0.000186097, No Iterations 4
GAMG:  Solving for p, Initial residual = 0.00868886, Final residual = 0.000768946, No Iterations 2
time step continuity errors : sum local = 0.000105113, global = -1.61572e-05, cumulative = -0.000946203
smoothSolver:  Solving for nuTilda, Initial residual = 0.00244371, Final residual = 0.000170018, No Iterations 4
ExecutionTime = 7.98 s  ClockTime = 8 s

Time = 68

smoothSolver:  Solving for Ux, Initial residual = 0.00459808, Final residual = 0.000315153, No Iterations 4
smoothSolver:  Solving for Uy, Initial residual = 0.00272806, Final residual = 0.00018477, No Iterations 4
GAMG:  Solving for p, Initial residual = 0.00865154, Final residual = 0.00071282, No Iterations 2
time step continuity errors : sum local = 9.77368e-05, global = -1.19917e-05, cumulative = -0.000958194
smoothSolver:  Solving for nuTilda, Initial residual = 0.00239524, Final residual = 0.00016649, No Iterations 4
ExecutionTime = 8.08 s  ClockTime = 8 s

Time = 69

smoothSolver:  Solving for Ux, Initial residual = 0.00458002, Final residual = 0.000313837, No Iterations 4
smoothSolver:  Solving for Uy, Initial residual = 0.00271686, Final residual = 0.000183851, No Iterations 4
GAMG:  Solving for p, Initial residual = 0.00869259, Final residual = 0.000683515, No Iterations 2
time step continuity errors : sum local = 9.39573e-05, global = -6.42759e-06, cumulative = -0.000964622
smoothSolver:  Solving for nuTilda, Initial residual = 0.0023475, Final residual = 0.000163039, No Iterations 4
ExecutionTime = 8.22 s  ClockTime = 9 s

Time = 70

smoothSolver:  Solving for Ux, Initial residual = 0.00455713, Final residual = 0.000312145, No Iterations 4
smoothSolver:  Solving for Uy, Initial residual = 0.00271154, Final residual = 0.000183362, No Iterations 4
GAMG:  Solving for p, Initial residual = 0.00867213, Final residual = 0.000654245, No Iterations 2
time step continuity errors : sum local = 9.01207e-05, global = -5.19058e-06, cumulative = -0.000969813
smoothSolver:  Solving for nuTilda, Initial residual = 0.0023007, Final residual = 0.000159669, No Iterations 4
ExecutionTime = 8.28 s  ClockTime = 9 s

Time = 71

smoothSolver:  Solving for Ux, Initial residual = 0.00452856, Final residual = 0.00031002, No Iterations 4
smoothSolver:  Solving for Uy, Initial residual = 0.00270806, Final residual = 0.000183041, No Iterations 4
GAMG:  Solving for p, Initial residual = 0.00865835, Final residual = 0.000628267, No Iterations 2
time step continuity errors : sum local = 8.67232e-05, global = -5.63303e-06, cumulative = -0.000975446
smoothSolver:  Solving for nuTilda, Initial residual = 0.00225488, Final residual = 0.000156368, No Iterations 4
ExecutionTime = 8.38 s  ClockTime = 9 s

Time = 72

smoothSolver:  Solving for Ux, Initial residual = 0.00449664, Final residual = 0.000307686, No Iterations 4
smoothSolver:  Solving for Uy, Initial residual = 0.0027022, Final residual = 0.00018256, No Iterations 4
GAMG:  Solving for p, Initial residual = 0.00865302, Final residual = 0.000641235, No Iterations 2
time step continuity errors : sum local = 8.87116e-05, global = -6.59028e-06, cumulative = -0.000982036
smoothSolver:  Solving for nuTilda, Initial residual = 0.00220967, Final residual = 0.000153114, No Iterations 4
ExecutionTime = 8.48 s  ClockTime = 9 s

Time = 73

smoothSolver:  Solving for Ux, Initial residual = 0.00446623, Final residual = 0.000305438, No Iterations 4
smoothSolver:  Solving for Uy, Initial residual = 0.00269294, Final residual = 0.000181842, No Iterations 4
GAMG:  Solving for p, Initial residual = 0.00862626, Final residual = 0.000692379, No Iterations 2
time step continuity errors : sum local = 9.59968e-05, global = -9.77021e-06, cumulative = -0.000991806
smoothSolver:  Solving for nuTilda, Initial residual = 0.00216522, Final residual = 0.00014992, No Iterations 4
ExecutionTime = 8.58 s  ClockTime = 9 s

Time = 74

smoothSolver:  Solving for Ux, Initial residual = 0.004441, Final residual = 0.000303591, No Iterations 4
smoothSolver:  Solving for Uy, Initial residual = 0.00268151, Final residual = 0.00018098, No Iterations 4
GAMG:  Solving for p, Initial residual = 0.00860972, Final residual = 0.00074705, No Iterations 2
time step continuity errors : sum local = 0.000103778, global = -1.34746e-05, cumulative = -0.00100528
smoothSolver:  Solving for nuTilda, Initial residual = 0.00212171, Final residual = 0.000146801, No Iterations 4
ExecutionTime = 8.67 s  ClockTime = 9 s

Time = 75

smoothSolver:  Solving for Ux, Initial residual = 0.00441993, Final residual = 0.000302113, No Iterations 4
smoothSolver:  Solving for Uy, Initial residual = 0.00266899, Final residual = 0.000180065, No Iterations 4
GAMG:  Solving for p, Initial residual = 0.00861954, Final residual = 0.000741834, No Iterations 2
time step continuity errors : sum local = 0.000103223, global = -1.40397e-05, cumulative = -0.00101932
smoothSolver:  Solving for nuTilda, Initial residual = 0.00207915, Final residual = 0.000143753, No Iterations 4
ExecutionTime = 8.79 s  ClockTime = 9 s

Time = 76

smoothSolver:  Solving for Ux, Initial residual = 0.00439875, Final residual = 0.000300676, No Iterations 4
smoothSolver:  Solving for Uy, Initial residual = 0.00265641, Final residual = 0.000179141, No Iterations 4
GAMG:  Solving for p, Initial residual = 0.0086199, Final residual = 0.00065401, No Iterations 2
time step continuity errors : sum local = 9.11317e-05, global = -1.08828e-05, cumulative = -0.0010302
smoothSolver:  Solving for nuTilda, Initial residual = 0.0020376, Final residual = 0.000140785, No Iterations 4
ExecutionTime = 8.88 s  ClockTime = 9 s

Time = 77

smoothSolver:  Solving for Ux, Initial residual = 0.00437274, Final residual = 0.000298908, No Iterations 4
smoothSolver:  Solving for Uy, Initial residual = 0.00264361, Final residual = 0.000178197, No Iterations 4
GAMG:  Solving for p, Initial residual = 0.00859884, Final residual = 0.000798418, No Iterations 1
time step continuity errors : sum local = 0.000111419, global = 6.15528e-06, cumulative = -0.00102405
smoothSolver:  Solving for nuTilda, Initial residual = 0.00199718, Final residual = 0.000137913, No Iterations 4
ExecutionTime = 8.96 s  ClockTime = 9 s

Time = 78

smoothSolver:  Solving for Ux, Initial residual = 0.00432501, Final residual = 0.000295312, No Iterations 4
smoothSolver:  Solving for Uy, Initial residual = 0.00262475, Final residual = 0.000176649, No Iterations 4
GAMG:  Solving for p, Initial residual = 0.00854745, Final residual = 0.000699671, No Iterations 2
time step continuity errors : sum local = 9.78239e-05, global = -1.19267e-05, cumulative = -0.00103597
smoothSolver:  Solving for nuTilda, Initial residual = 0.00195798, Final residual = 0.000135123, No Iterations 4
ExecutionTime = 9.05 s  ClockTime = 10 s

Time = 79

smoothSolver:  Solving for Ux, Initial residual = 0.00430219, Final residual = 0.000293734, No Iterations 4
smoothSolver:  Solving for Uy, Initial residual = 0.00260934, Final residual = 0.000175541, No Iterations 4
GAMG:  Solving for p, Initial residual = 0.00853395, Final residual = 0.000775567, No Iterations 2
time step continuity errors : sum local = 0.000108698, global = -1.23481e-05, cumulative = -0.00104832
smoothSolver:  Solving for nuTilda, Initial residual = 0.00192008, Final residual = 0.000132411, No Iterations 4
ExecutionTime = 9.16 s  ClockTime = 10 s

Time = 80

smoothSolver:  Solving for Ux, Initial residual = 0.00428354, Final residual = 0.000292549, No Iterations 4
smoothSolver:  Solving for Uy, Initial residual = 0.00259672, Final residual = 0.000174659, No Iterations 4
GAMG:  Solving for p, Initial residual = 0.00853598, Final residual = 0.000768029, No Iterations 2
time step continuity errors : sum local = 0.00010791, global = -1.09999e-05, cumulative = -0.00105932
smoothSolver:  Solving for nuTilda, Initial residual = 0.0018834, Final residual = 0.000129785, No Iterations 4
ExecutionTime = 9.22 s  ClockTime = 10 s

Time = 81

smoothSolver:  Solving for Ux, Initial residual = 0.00426268, Final residual = 0.000291264, No Iterations 4
smoothSolver:  Solving for Uy, Initial residual = 0.00258771, Final residual = 0.000174061, No Iterations 4
GAMG:  Solving for p, Initial residual = 0.00855203, Final residual = 0.000655855, No Iterations 2
time step continuity errors : sum local = 9.23688e-05, global = -6.14631e-06, cumulative = -0.00106547
smoothSolver:  Solving for nuTilda, Initial residual = 0.0018478, Final residual = 0.000127239, No Iterations 4
ExecutionTime = 9.29 s  ClockTime = 10 s

Time = 82

smoothSolver:  Solving for Ux, Initial residual = 0.00423438, Final residual = 0.000289461, No Iterations 4
smoothSolver:  Solving for Uy, Initial residual = 0.00257969, Final residual = 0.000173528, No Iterations 4
GAMG:  Solving for p, Initial residual = 0.00849876, Final residual = 0.0007342, No Iterations 1
time step continuity errors : sum local = 0.000103623, global = 4.36382e-06, cumulative = -0.00106111
smoothSolver:  Solving for nuTilda, Initial residual = 0.0018132, Final residual = 0.000124767, No Iterations 4
ExecutionTime = 9.33 s  ClockTime = 10 s

Time = 83

smoothSolver:  Solving for Ux, Initial residual = 0.00418655, Final residual = 0.00028596, No Iterations 4
smoothSolver:  Solving for Uy, Initial residual = 0.00255956, Final residual = 0.000171923, No Iterations 4
GAMG:  Solving for p, Initial residual = 0.00836457, Final residual = 0.000578041, No Iterations 2
time step continuity errors : sum local = 8.17436e-05, global = -8.99757e-06, cumulative = -0.0010701
smoothSolver:  Solving for nuTilda, Initial residual = 0.00177965, Final residual = 0.000122362, No Iterations 4
ExecutionTime = 9.4 s  ClockTime = 10 s

Time = 84

smoothSolver:  Solving for Ux, Initial residual = 0.00415532, Final residual = 0.000283819, No Iterations 4
smoothSolver:  Solving for Uy, Initial residual = 0.00254257, Final residual = 0.000170726, No Iterations 4
GAMG:  Solving for p, Initial residual = 0.00832938, Final residual = 0.000616775, No Iterations 2
time step continuity errors : sum local = 8.74044e-05, global = -1.09749e-05, cumulative = -0.00108108
smoothSolver:  Solving for nuTilda, Initial residual = 0.0017472, Final residual = 0.00012003, No Iterations 4
ExecutionTime = 9.47 s  ClockTime = 10 s

Time = 85

smoothSolver:  Solving for Ux, Initial residual = 0.00412887, Final residual = 0.000281985, No Iterations 4
smoothSolver:  Solving for Uy, Initial residual = 0.00252416, Final residual = 0.00016943, No Iterations 4
GAMG:  Solving for p, Initial residual = 0.0082829, Final residual = 0.000620776, No Iterations 2
time step continuity errors : sum local = 8.81399e-05, global = -1.17616e-05, cumulative = -0.00109284
smoothSolver:  Solving for nuTilda, Initial residual = 0.00171549, Final residual = 0.000117763, No Iterations 4
ExecutionTime = 9.54 s  ClockTime = 10 s

Time = 86

smoothSolver:  Solving for Ux, Initial residual = 0.00410443, Final residual = 0.000280367, No Iterations 4
smoothSolver:  Solving for Uy, Initial residual = 0.00250619, Final residual = 0.00016816, No Iterations 4
GAMG:  Solving for p, Initial residual = 0.00824997, Final residual = 0.000796601, No Iterations 1
time step continuity errors : sum local = 0.000113292, global = 8.64278e-06, cumulative = -0.0010842
smoothSolver:  Solving for nuTilda, Initial residual = 0.0016845, Final residual = 0.000115548, No Iterations 4
ExecutionTime = 9.62 s  ClockTime = 10 s

Time = 87

smoothSolver:  Solving for Ux, Initial residual = 0.00406312, Final residual = 0.000277425, No Iterations 4
smoothSolver:  Solving for Uy, Initial residual = 0.00248562, Final residual = 0.000166576, No Iterations 4
GAMG:  Solving for p, Initial residual = 0.00815834, Final residual = 0.000707838, No Iterations 2
time step continuity errors : sum local = 0.000100826, global = -1.52131e-05, cumulative = -0.00109941
smoothSolver:  Solving for nuTilda, Initial residual = 0.00165428, Final residual = 0.000113385, No Iterations 4
ExecutionTime = 9.68 s  ClockTime = 10 s

Time = 88

smoothSolver:  Solving for Ux, Initial residual = 0.00404228, Final residual = 0.000276243, No Iterations 4
smoothSolver:  Solving for Uy, Initial residual = 0.00246766, Final residual = 0.000165358, No Iterations 4
GAMG:  Solving for p, Initial residual = 0.00816047, Final residual = 0.000678508, No Iterations 2
time step continuity errors : sum local = 9.68336e-05, global = -1.35569e-05, cumulative = -0.00111297
smoothSolver:  Solving for nuTilda, Initial residual = 0.00162481, Final residual = 0.000111276, No Iterations 4
ExecutionTime = 9.74 s  ClockTime = 10 s

Time = 89

smoothSolver:  Solving for Ux, Initial residual = 0.00401885, Final residual = 0.000274876, No Iterations 4
smoothSolver:  Solving for Uy, Initial residual = 0.00245161, Final residual = 0.000164267, No Iterations 4
GAMG:  Solving for p, Initial residual = 0.00815006, Final residual = 0.000797231, No Iterations 1
time step continuity errors : sum local = 0.000114, global = 9.85413e-06, cumulative = -0.00110311
smoothSolver:  Solving for nuTilda, Initial residual = 0.00159613, Final residual = 0.000109222, No Iterations 4
ExecutionTime = 9.79 s  ClockTime = 10 s

Time = 90

smoothSolver:  Solving for Ux, Initial residual = 0.00397756, Final residual = 0.000271962, No Iterations 4
smoothSolver:  Solving for Uy, Initial residual = 0.0024308, Final residual = 0.000162701, No Iterations 4
GAMG:  Solving for p, Initial residual = 0.00803425, Final residual = 0.000614937, No Iterations 2
time step continuity errors : sum local = 8.80756e-05, global = -1.04802e-05, cumulative = -0.00111359
smoothSolver:  Solving for nuTilda, Initial residual = 0.00156831, Final residual = 0.000107226, No Iterations 4
ExecutionTime = 9.87 s  ClockTime = 10 s

Time = 91

smoothSolver:  Solving for Ux, Initial residual = 0.0039494, Final residual = 0.000270231, No Iterations 4
smoothSolver:  Solving for Uy, Initial residual = 0.00241409, Final residual = 0.000161603, No Iterations 4
GAMG:  Solving for p, Initial residual = 0.00799173, Final residual = 0.000560028, No Iterations 2
time step continuity errors : sum local = 8.039e-05, global = -8.69987e-06, cumulative = -0.00112229
smoothSolver:  Solving for nuTilda, Initial residual = 0.00154125, Final residual = 0.000105281, No Iterations 4
ExecutionTime = 9.93 s  ClockTime = 10 s

Time = 92

smoothSolver:  Solving for Ux, Initial residual = 0.00392007, Final residual = 0.000268369, No Iterations 4
smoothSolver:  Solving for Uy, Initial residual = 0.00239668, Final residual = 0.000160452, No Iterations 4
GAMG:  Solving for p, Initial residual = 0.00792403, Final residual = 0.00070846, No Iterations 1
time step continuity errors : sum local = 0.000101918, global = 9.73781e-06, cumulative = -0.00111255
smoothSolver:  Solving for nuTilda, Initial residual = 0.0015147, Final residual = 0.000103374, No Iterations 4
ExecutionTime = 9.99 s  ClockTime = 11 s

Time = 93

smoothSolver:  Solving for Ux, Initial residual = 0.00388035, Final residual = 0.000265569, No Iterations 4
smoothSolver:  Solving for Uy, Initial residual = 0.00237369, Final residual = 0.000158779, No Iterations 4
GAMG:  Solving for p, Initial residual = 0.00780267, Final residual = 0.000542867, No Iterations 2
time step continuity errors : sum local = 7.82235e-05, global = -9.39569e-06, cumulative = -0.00112195
smoothSolver:  Solving for nuTilda, Initial residual = 0.00148889, Final residual = 0.000101517, No Iterations 4
ExecutionTime = 10.05 s  ClockTime = 11 s

Time = 94

smoothSolver:  Solving for Ux, Initial residual = 0.00385378, Final residual = 0.000263777, No Iterations 4
smoothSolver:  Solving for Uy, Initial residual = 0.00235151, Final residual = 0.000157316, No Iterations 4
GAMG:  Solving for p, Initial residual = 0.00773985, Final residual = 0.000517016, No Iterations 2
time step continuity errors : sum local = 7.46556e-05, global = -9.59392e-06, cumulative = -0.00113154
smoothSolver:  Solving for nuTilda, Initial residual = 0.00146363, Final residual = 9.97033e-05, No Iterations 4
ExecutionTime = 10.12 s  ClockTime = 11 s

Time = 95

smoothSolver:  Solving for Ux, Initial residual = 0.00382745, Final residual = 0.000261988, No Iterations 4
smoothSolver:  Solving for Uy, Initial residual = 0.00232886, Final residual = 0.000155811, No Iterations 4
GAMG:  Solving for p, Initial residual = 0.00767601, Final residual = 0.000690492, No Iterations 1
time step continuity errors : sum local = 9.98962e-05, global = 7.87937e-06, cumulative = -0.00112366
smoothSolver:  Solving for nuTilda, Initial residual = 0.00143869, Final residual = 9.79208e-05, No Iterations 4
ExecutionTime = 10.16 s  ClockTime = 11 s

Time = 96

smoothSolver:  Solving for Ux, Initial residual = 0.00379022, Final residual = 0.000259301, No Iterations 4
smoothSolver:  Solving for Uy, Initial residual = 0.00230469, Final residual = 0.000154107, No Iterations 4
GAMG:  Solving for p, Initial residual = 0.00757774, Final residual = 0.00052971, No Iterations 2
time step continuity errors : sum local = 7.67436e-05, global = -1.19197e-05, cumulative = -0.00113558
smoothSolver:  Solving for nuTilda, Initial residual = 0.00141457, Final residual = 9.61982e-05, No Iterations 4
ExecutionTime = 10.23 s  ClockTime = 11 s

Time = 97

smoothSolver:  Solving for Ux, Initial residual = 0.00376463, Final residual = 0.000257611, No Iterations 4
smoothSolver:  Solving for Uy, Initial residual = 0.00228067, Final residual = 0.000152518, No Iterations 4
GAMG:  Solving for p, Initial residual = 0.00752337, Final residual = 0.000498628, No Iterations 2
time step continuity errors : sum local = 7.23695e-05, global = -1.10692e-05, cumulative = -0.00114665
smoothSolver:  Solving for nuTilda, Initial residual = 0.00139111, Final residual = 9.45223e-05, No Iterations 4
ExecutionTime = 10.27 s  ClockTime = 11 s

Time = 98

smoothSolver:  Solving for Ux, Initial residual = 0.00373814, Final residual = 0.000255857, No Iterations 4
smoothSolver:  Solving for Uy, Initial residual = 0.00225776, Final residual = 0.00015101, No Iterations 4
GAMG:  Solving for p, Initial residual = 0.00745912, Final residual = 0.000655278, No Iterations 1
time step continuity errors : sum local = 9.52606e-05, global = 5.93946e-06, cumulative = -0.00114071
smoothSolver:  Solving for nuTilda, Initial residual = 0.00136806, Final residual = 9.28742e-05, No Iterations 4
ExecutionTime = 10.3 s  ClockTime = 11 s

Time = 99

smoothSolver:  Solving for Ux, Initial residual = 0.00370207, Final residual = 0.000253233, No Iterations 4
smoothSolver:  Solving for Uy, Initial residual = 0.00223302, Final residual = 0.000149306, No Iterations 4
GAMG:  Solving for p, Initial residual = 0.00733917, Final residual = 0.000476026, No Iterations 2
time step continuity errors : sum local = 6.92913e-05, global = -1.02816e-05, cumulative = -0.001151
smoothSolver:  Solving for nuTilda, Initial residual = 0.00134575, Final residual = 9.12753e-05, No Iterations 4
ExecutionTime = 10.36 s  ClockTime = 11 s

Time = 100

smoothSolver:  Solving for Ux, Initial residual = 0.00367477, Final residual = 0.000251465, No Iterations 4
smoothSolver:  Solving for Uy, Initial residual = 0.00220952, Final residual = 0.000147811, No Iterations 4
GAMG:  Solving for p, Initial residual = 0.00727276, Final residual = 0.000723604, No Iterations 1
time step continuity errors : sum local = 0.000105503, global = 1.27996e-05, cumulative = -0.0011382
smoothSolver:  Solving for nuTilda, Initial residual = 0.00132407, Final residual = 8.97129e-05, No Iterations 4
ExecutionTime = 10.41 s  ClockTime = 11 s

Time = 101

smoothSolver:  Solving for Ux, Initial residual = 0.00364124, Final residual = 0.000249093, No Iterations 4
smoothSolver:  Solving for Uy, Initial residual = 0.00218433, Final residual = 0.000146131, No Iterations 4
GAMG:  Solving for p, Initial residual = 0.00720188, Final residual = 0.000535526, No Iterations 2
time step continuity errors : sum local = 7.81746e-05, global = -1.09788e-05, cumulative = -0.00114918
smoothSolver:  Solving for nuTilda, Initial residual = 0.00130268, Final residual = 8.81761e-05, No Iterations 4
ExecutionTime = 10.47 s  ClockTime = 11 s

Time = 102

smoothSolver:  Solving for Ux, Initial residual = 0.00361685, Final residual = 0.000247464, No Iterations 4
smoothSolver:  Solving for Uy, Initial residual = 0.00215854, Final residual = 0.000144501, No Iterations 4
GAMG:  Solving for p, Initial residual = 0.00712756, Final residual = 0.000489005, No Iterations 2
time step continuity errors : sum local = 7.15172e-05, global = -1.03126e-05, cumulative = -0.00115949
smoothSolver:  Solving for nuTilda, Initial residual = 0.00128166, Final residual = 8.66706e-05, No Iterations 4
ExecutionTime = 10.53 s  ClockTime = 11 s

Time = 103

smoothSolver:  Solving for Ux, Initial residual = 0.00359166, Final residual = 0.000245756, No Iterations 4
smoothSolver:  Solving for Uy, Initial residual = 0.00213341, Final residual = 0.00014289, No Iterations 4
GAMG:  Solving for p, Initial residual = 0.00705609, Final residual = 0.000598969, No Iterations 1
time step continuity errors : sum local = 8.77531e-05, global = 4.33821e-06, cumulative = -0.00115515
smoothSolver:  Solving for nuTilda, Initial residual = 0.00126103, Final residual = 8.51978e-05, No Iterations 4
ExecutionTime = 10.59 s  ClockTime = 11 s

Time = 104

smoothSolver:  Solving for Ux, Initial residual = 0.00355855, Final residual = 0.000243357, No Iterations 4
smoothSolver:  Solving for Uy, Initial residual = 0.00210647, Final residual = 0.000141098, No Iterations 4
GAMG:  Solving for p, Initial residual = 0.00691086, Final residual = 0.000662683, No Iterations 1
time step continuity errors : sum local = 9.71965e-05, global = 9.59184e-06, cumulative = -0.00114556
smoothSolver:  Solving for nuTilda, Initial residual = 0.00124085, Final residual = 8.37636e-05, No Iterations 4
ExecutionTime = 10.66 s  ClockTime = 11 s

Time = 105

smoothSolver:  Solving for Ux, Initial residual = 0.00352716, Final residual = 0.000241081, No Iterations 4
smoothSolver:  Solving for Uy, Initial residual = 0.00207909, Final residual = 0.00013932, No Iterations 4
GAMG:  Solving for p, Initial residual = 0.00684507, Final residual = 0.000484216, No Iterations 2
time step continuity errors : sum local = 7.10998e-05, global = -1.17795e-05, cumulative = -0.00115734
smoothSolver:  Solving for nuTilda, Initial residual = 0.00122116, Final residual = 8.23675e-05, No Iterations 4
ExecutionTime = 10.73 s  ClockTime = 11 s

Time = 106

smoothSolver:  Solving for Ux, Initial residual = 0.00350449, Final residual = 0.000239527, No Iterations 4
smoothSolver:  Solving for Uy, Initial residual = 0.00204893, Final residual = 0.000137403, No Iterations 4
GAMG:  Solving for p, Initial residual = 0.0067414, Final residual = 0.000449242, No Iterations 2
time step continuity errors : sum local = 6.6104e-05, global = -1.10891e-05, cumulative = -0.00116843
smoothSolver:  Solving for nuTilda, Initial residual = 0.00120182, Final residual = 8.09982e-05, No Iterations 4
ExecutionTime = 10.8 s  ClockTime = 11 s

Time = 107

smoothSolver:  Solving for Ux, Initial residual = 0.00348128, Final residual = 0.000237928, No Iterations 4
smoothSolver:  Solving for Uy, Initial residual = 0.00202013, Final residual = 0.000135554, No Iterations 4
GAMG:  Solving for p, Initial residual = 0.00665006, Final residual = 0.000563247, No Iterations 1
time step continuity errors : sum local = 8.30374e-05, global = 4.99959e-06, cumulative = -0.00116343
smoothSolver:  Solving for nuTilda, Initial residual = 0.00118284, Final residual = 7.96577e-05, No Iterations 4
ExecutionTime = 10.86 s  ClockTime = 11 s

Time = 108

smoothSolver:  Solving for Ux, Initial residual = 0.00345072, Final residual = 0.000235775, No Iterations 4
smoothSolver:  Solving for Uy, Initial residual = 0.00199194, Final residual = 0.000133732, No Iterations 4
GAMG:  Solving for p, Initial residual = 0.00650813, Final residual = 0.000620203, No Iterations 1
time step continuity errors : sum local = 9.15206e-05, global = 9.49422e-06, cumulative = -0.00115393
smoothSolver:  Solving for nuTilda, Initial residual = 0.0011644, Final residual = 7.8352e-05, No Iterations 4
ExecutionTime = 10.91 s  ClockTime = 11 s

Time = 109

smoothSolver:  Solving for Ux, Initial residual = 0.00342173, Final residual = 0.000233753, No Iterations 4
smoothSolver:  Solving for Uy, Initial residual = 0.00196366, Final residual = 0.000131926, No Iterations 4
GAMG:  Solving for p, Initial residual = 0.00644663, Final residual = 0.000443173, No Iterations 2
time step continuity errors : sum local = 6.54572e-05, global = -1.11277e-05, cumulative = -0.00116506
smoothSolver:  Solving for nuTilda, Initial residual = 0.00114642, Final residual = 7.70779e-05, No Iterations 4
ExecutionTime = 10.97 s  ClockTime = 12 s

Time = 110

smoothSolver:  Solving for Ux, Initial residual = 0.0033993, Final residual = 0.000232231, No Iterations 4
smoothSolver:  Solving for Uy, Initial residual = 0.00193304, Final residual = 0.00012999, No Iterations 4
GAMG:  Solving for p, Initial residual = 0.00635771, Final residual = 0.000402473, No Iterations 2
time step continuity errors : sum local = 5.95532e-05, global = -1.0394e-05, cumulative = -0.00117545
smoothSolver:  Solving for nuTilda, Initial residual = 0.00112897, Final residual = 7.58365e-05, No Iterations 4
ExecutionTime = 11.02 s  ClockTime = 12 s

Time = 111

smoothSolver:  Solving for Ux, Initial residual = 0.00337634, Final residual = 0.000230635, No Iterations 4
smoothSolver:  Solving for Uy, Initial residual = 0.00190322, Final residual = 0.000128098, No Iterations 4
GAMG:  Solving for p, Initial residual = 0.00627559, Final residual = 0.000518697, No Iterations 1
time step continuity errors : sum local = 7.68718e-05, global = 3.55617e-06, cumulative = -0.0011719
smoothSolver:  Solving for nuTilda, Initial residual = 0.00111165, Final residual = 7.46053e-05, No Iterations 4
ExecutionTime = 11.06 s  ClockTime = 12 s

Time = 112

smoothSolver:  Solving for Ux, Initial residual = 0.00334741, Final residual = 0.000228587, No Iterations 4
smoothSolver:  Solving for Uy, Initial residual = 0.00187404, Final residual = 0.000126259, No Iterations 4
GAMG:  Solving for p, Initial residual = 0.00614457, Final residual = 0.000569876, No Iterations 1
time step continuity errors : sum local = 8.45205e-05, global = 7.83858e-06, cumulative = -0.00116406
smoothSolver:  Solving for nuTilda, Initial residual = 0.00109463, Final residual = 7.33972e-05, No Iterations 4
ExecutionTime = 11.13 s  ClockTime = 12 s

Time = 113

smoothSolver:  Solving for Ux, Initial residual = 0.00332004, Final residual = 0.000226651, No Iterations 4
smoothSolver:  Solving for Uy, Initial residual = 0.00184461, Final residual = 0.000124432, No Iterations 4
GAMG:  Solving for p, Initial residual = 0.0060866, Final residual = 0.000393856, No Iterations 2
time step continuity errors : sum local = 5.84583e-05, global = -1.05131e-05, cumulative = -0.00117457
smoothSolver:  Solving for nuTilda, Initial residual = 0.00107789, Final residual = 7.22098e-05, No Iterations 4
ExecutionTime = 11.19 s  ClockTime = 12 s

Time = 114

smoothSolver:  Solving for Ux, Initial residual = 0.00329759, Final residual = 0.000225113, No Iterations 4
smoothSolver:  Solving for Uy, Initial residual = 0.00181093, Final residual = 0.000122287, No Iterations 4
GAMG:  Solving for p, Initial residual = 0.00599771, Final residual = 0.00035845, No Iterations 2
time step continuity errors : sum local = 5.32941e-05, global = -9.40335e-06, cumulative = -0.00118398
smoothSolver:  Solving for nuTilda, Initial residual = 0.00106149, Final residual = 7.10481e-05, No Iterations 4
ExecutionTime = 11.25 s  ClockTime = 12 s

Time = 115

smoothSolver:  Solving for Ux, Initial residual = 0.00327502, Final residual = 0.000223628, No Iterations 4
smoothSolver:  Solving for Uy, Initial residual = 0.00177834, Final residual = 0.000120207, No Iterations 4
GAMG:  Solving for p, Initial residual = 0.00591905, Final residual = 0.000472395, No Iterations 1
time step continuity errors : sum local = 7.03464e-05, global = 4.51341e-06, cumulative = -0.00117946
smoothSolver:  Solving for nuTilda, Initial residual = 0.00104541, Final residual = 6.99113e-05, No Iterations 4
ExecutionTime = 11.31 s  ClockTime = 12 s

Time = 116

smoothSolver:  Solving for Ux, Initial residual = 0.00324802, Final residual = 0.000221789, No Iterations 4
smoothSolver:  Solving for Uy, Initial residual = 0.00174887, Final residual = 0.000118383, No Iterations 4
GAMG:  Solving for p, Initial residual = 0.0057965, Final residual = 0.000522138, No Iterations 1
time step continuity errors : sum local = 7.78048e-05, global = 8.95213e-06, cumulative = -0.00117051
smoothSolver:  Solving for nuTilda, Initial residual = 0.00102957, Final residual = 6.8795e-05, No Iterations 4
ExecutionTime = 11.36 s  ClockTime = 12 s

Time = 117

smoothSolver:  Solving for Ux, Initial residual = 0.00322139, Final residual = 0.000219916, No Iterations 4
smoothSolver:  Solving for Uy, Initial residual = 0.00171951, Final residual = 0.0001166, No Iterations 4
GAMG:  Solving for p, Initial residual = 0.00573828, Final residual = 0.0003614, No Iterations 2
time step continuity errors : sum local = 5.38895e-05, global = -9.26733e-06, cumulative = -0.00117978
smoothSolver:  Solving for nuTilda, Initial residual = 0.0010141, Final residual = 6.76974e-05, No Iterations 4
ExecutionTime = 11.42 s  ClockTime = 12 s

Time = 118

smoothSolver:  Solving for Ux, Initial residual = 0.00319903, Final residual = 0.000218291, No Iterations 4
smoothSolver:  Solving for Uy, Initial residual = 0.00168446, Final residual = 0.00011441, No Iterations 4
GAMG:  Solving for p, Initial residual = 0.00564609, Final residual = 0.000325356, No Iterations 2
time step continuity errors : sum local = 4.86053e-05, global = -8.42975e-06, cumulative = -0.00118821
smoothSolver:  Solving for nuTilda, Initial residual = 0.000998942, Final residual = 6.66177e-05, No Iterations 4
ExecutionTime = 11.48 s  ClockTime = 12 s

Time = 119

smoothSolver:  Solving for Ux, Initial residual = 0.003176, Final residual = 0.000216623, No Iterations 4
smoothSolver:  Solving for Uy, Initial residual = 0.00165108, Final residual = 0.000112339, No Iterations 4
GAMG:  Solving for p, Initial residual = 0.00556472, Final residual = 0.000439999, No Iterations 1
time step continuity errors : sum local = 6.58452e-05, global = 4.19171e-06, cumulative = -0.00118402
smoothSolver:  Solving for nuTilda, Initial residual = 0.00098392, Final residual = 6.55483e-05, No Iterations 4
ExecutionTime = 11.55 s  ClockTime = 12 s

Time = 120

smoothSolver:  Solving for Ux, Initial residual = 0.00314902, Final residual = 0.000214615, No Iterations 4
smoothSolver:  Solving for Uy, Initial residual = 0.00162296, Final residual = 0.000110669, No Iterations 4
GAMG:  Solving for p, Initial residual = 0.00544395, Final residual = 0.000490623, No Iterations 1
time step continuity errors : sum local = 7.34637e-05, global = 8.21229e-06, cumulative = -0.0011758
smoothSolver:  Solving for nuTilda, Initial residual = 0.000969176, Final residual = 6.45004e-05, No Iterations 4
ExecutionTime = 11.59 s  ClockTime = 12 s

Time = 121

smoothSolver:  Solving for Ux, Initial residual = 0.00312195, Final residual = 0.000212562, No Iterations 4
smoothSolver:  Solving for Uy, Initial residual = 0.00159522, Final residual = 0.000109036, No Iterations 4
GAMG:  Solving for p, Initial residual = 0.00537631, Final residual = 0.000327621, No Iterations 2
time step continuity errors : sum local = 4.90874e-05, global = -8.63665e-06, cumulative = -0.00118444
smoothSolver:  Solving for nuTilda, Initial residual = 0.000954389, Final residual = 6.34579e-05, No Iterations 4
ExecutionTime = 11.66 s  ClockTime = 12 s

Time = 122

smoothSolver:  Solving for Ux, Initial residual = 0.00309806, Final residual = 0.000210671, No Iterations 4
smoothSolver:  Solving for Uy, Initial residual = 0.00156053, Final residual = 0.000106895, No Iterations 4
GAMG:  Solving for p, Initial residual = 0.00527585, Final residual = 0.000296043, No Iterations 2
time step continuity errors : sum local = 4.44427e-05, global = -7.73574e-06, cumulative = -0.00119218
smoothSolver:  Solving for nuTilda, Initial residual = 0.000939868, Final residual = 6.24354e-05, No Iterations 4
ExecutionTime = 11.73 s  ClockTime = 12 s

Time = 123

smoothSolver:  Solving for Ux, Initial residual = 0.00307314, Final residual = 0.000208703, No Iterations 4
smoothSolver:  Solving for Uy, Initial residual = 0.00152785, Final residual = 0.000104893, No Iterations 4
GAMG:  Solving for p, Initial residual = 0.00519125, Final residual = 0.000407951, No Iterations 1
time step continuity errors : sum local = 6.13501e-05, global = 5.02995e-06, cumulative = -0.00118715
smoothSolver:  Solving for nuTilda, Initial residual = 0.000925676, Final residual = 6.14353e-05, No Iterations 4
ExecutionTime = 11.8 s  ClockTime = 12 s

Time = 124

smoothSolver:  Solving for Ux, Initial residual = 0.00304456, Final residual = 0.000206463, No Iterations 4
smoothSolver:  Solving for Uy, Initial residual = 0.00150213, Final residual = 0.000103411, No Iterations 4
GAMG:  Solving for p, Initial residual = 0.00506983, Final residual = 0.000455314, No Iterations 1
time step continuity errors : sum local = 6.85091e-05, global = 9.27294e-06, cumulative = -0.00117787
smoothSolver:  Solving for nuTilda, Initial residual = 0.000911632, Final residual = 6.0448e-05, No Iterations 4
ExecutionTime = 11.86 s  ClockTime = 12 s

Time = 125

smoothSolver:  Solving for Ux, Initial residual = 0.00301574, Final residual = 0.000204179, No Iterations 4
smoothSolver:  Solving for Uy, Initial residual = 0.00147693, Final residual = 0.000101974, No Iterations 4
GAMG:  Solving for p, Initial residual = 0.00499837, Final residual = 0.000311135, No Iterations 2
time step continuity errors : sum local = 4.68414e-05, global = -7.67615e-06, cumulative = -0.00118555
smoothSolver:  Solving for nuTilda, Initial residual = 0.000897854, Final residual = 5.94779e-05, No Iterations 4
ExecutionTime = 11.92 s  ClockTime = 13 s

Time = 126

smoothSolver:  Solving for Ux, Initial residual = 0.00298919, Final residual = 0.000202003, No Iterations 4
smoothSolver:  Solving for Uy, Initial residual = 0.00144285, Final residual = 9.98917e-05, No Iterations 4
GAMG:  Solving for p, Initial residual = 0.00490167, Final residual = 0.00028194, No Iterations 2
time step continuity errors : sum local = 4.25241e-05, global = -6.90706e-06, cumulative = -0.00119246
smoothSolver:  Solving for nuTilda, Initial residual = 0.000884142, Final residual = 5.85162e-05, No Iterations 4
ExecutionTime = 11.98 s  ClockTime = 13 s

Time = 127

smoothSolver:  Solving for Ux, Initial residual = 0.00296149, Final residual = 0.000199792, No Iterations 4
smoothSolver:  Solving for Uy, Initial residual = 0.00141146, Final residual = 9.79988e-05, No Iterations 4
GAMG:  Solving for p, Initial residual = 0.00482044, Final residual = 0.000388611, No Iterations 1
time step continuity errors : sum local = 5.87102e-05, global = 5.46435e-06, cumulative = -0.00118699
smoothSolver:  Solving for nuTilda, Initial residual = 0.000870512, Final residual = 5.75634e-05, No Iterations 4
ExecutionTime = 12.06 s  ClockTime = 13 s

Time = 128

smoothSolver:  Solving for Ux, Initial residual = 0.00293001, Final residual = 0.000197397, No Iterations 4
smoothSolver:  Solving for Uy, Initial residual = 0.00138948, Final residual = 9.6794e-05, No Iterations 4
GAMG:  Solving for p, Initial residual = 0.00470273, Final residual = 0.000437842, No Iterations 1
time step continuity errors : sum local = 6.61804e-05, global = 9.59931e-06, cumulative = -0.00117739
smoothSolver:  Solving for nuTilda, Initial residual = 0.00085714, Final residual = 5.66293e-05, No Iterations 4
ExecutionTime = 12.09 s  ClockTime = 13 s

Time = 129

smoothSolver:  Solving for Ux, Initial residual = 0.00289801, Final residual = 0.000194995, No Iterations 4
smoothSolver:  Solving for Uy, Initial residual = 0.00136816, Final residual = 9.56343e-05, No Iterations 4
GAMG:  Solving for p, Initial residual = 0.00463758, Final residual = 0.000292611, No Iterations 2
time step continuity errors : sum local = 4.42533e-05, global = -6.78685e-06, cumulative = -0.00118418
smoothSolver:  Solving for nuTilda, Initial residual = 0.000843757, Final residual = 5.57002e-05, No Iterations 4
ExecutionTime = 12.16 s  ClockTime = 13 s

Time = 130

smoothSolver:  Solving for Ux, Initial residual = 0.00286844, Final residual = 0.000192693, No Iterations 4
smoothSolver:  Solving for Uy, Initial residual = 0.00133739, Final residual = 9.37571e-05, No Iterations 4
GAMG:  Solving for p, Initial residual = 0.00454265, Final residual = 0.000265496, No Iterations 2
time step continuity errors : sum local = 4.0231e-05, global = -6.17992e-06, cumulative = -0.00119036
smoothSolver:  Solving for nuTilda, Initial residual = 0.000830555, Final residual = 5.47859e-05, No Iterations 4
ExecutionTime = 12.22 s  ClockTime = 13 s

Time = 131

smoothSolver:  Solving for Ux, Initial residual = 0.00283751, Final residual = 0.00019036, No Iterations 4
smoothSolver:  Solving for Uy, Initial residual = 0.00130968, Final residual = 9.20874e-05, No Iterations 4
GAMG:  Solving for p, Initial residual = 0.00446458, Final residual = 0.00036277, No Iterations 1
time step continuity errors : sum local = 5.50689e-05, global = 5.91525e-06, cumulative = -0.00118444
smoothSolver:  Solving for nuTilda, Initial residual = 0.000817518, Final residual = 5.38858e-05, No Iterations 4
ExecutionTime = 12.29 s  ClockTime = 13 s

Time = 132

smoothSolver:  Solving for Ux, Initial residual = 0.00280284, Final residual = 0.000187884, No Iterations 4
smoothSolver:  Solving for Uy, Initial residual = 0.00129195, Final residual = 9.1132e-05, No Iterations 4
GAMG:  Solving for p, Initial residual = 0.00435074, Final residual = 0.000407471, No Iterations 1
time step continuity errors : sum local = 6.18868e-05, global = 9.63868e-06, cumulative = -0.00117481
smoothSolver:  Solving for nuTilda, Initial residual = 0.00080447, Final residual = 5.29921e-05, No Iterations 4
ExecutionTime = 12.35 s  ClockTime = 13 s

Time = 133

smoothSolver:  Solving for Ux, Initial residual = 0.00276807, Final residual = 0.000185408, No Iterations 4
smoothSolver:  Solving for Uy, Initial residual = 0.00127506, Final residual = 9.0218e-05, No Iterations 4
GAMG:  Solving for p, Initial residual = 0.0042855, Final residual = 0.000281312, No Iterations 2
time step continuity errors : sum local = 4.27514e-05, global = -6.15999e-06, cumulative = -0.00118097
smoothSolver:  Solving for nuTilda, Initial residual = 0.000791635, Final residual = 5.21151e-05, No Iterations 4
ExecutionTime = 12.41 s  ClockTime = 13 s

Time = 134

smoothSolver:  Solving for Ux, Initial residual = 0.00273598, Final residual = 0.000183009, No Iterations 4
[...]

smoothSolver:  Solving for Ux, Initial residual = 0.000368127, Final residual = 2.63847e-05, No Iterations 4
smoothSolver:  Solving for Uy, Initial residual = 0.000185313, Final residual = 1.31327e-05, No Iterations 4
GAMG:  Solving for p, Initial residual = 0.000507251, Final residual = 4.43438e-05, No Iterations 2
time step continuity errors : sum local = 7.7253e-06, global = -1.14272e-06, cumulative = -0.00113913
smoothSolver:  Solving for nuTilda, Initial residual = 8.2227e-06, Final residual = 4.86179e-07, No Iterations 4
ExecutionTime = 43.55 s  ClockTime = 48 s

Time = 468

smoothSolver:  Solving for Ux, Initial residual = 0.000366231, Final residual = 2.6263e-05, No Iterations 4
smoothSolver:  Solving for Uy, Initial residual = 0.000184174, Final residual = 1.3063e-05, No Iterations 4
GAMG:  Solving for p, Initial residual = 0.000505319, Final residual = 4.69731e-05, No Iterations 1
time step continuity errors : sum local = 8.18494e-06, global = 7.73291e-07, cumulative = -0.00113835
smoothSolver:  Solving for nuTilda, Initial residual = 8.15356e-06, Final residual = 4.81926e-07, No Iterations 4
ExecutionTime = 43.64 s  ClockTime = 48 s

Time = 469

smoothSolver:  Solving for Ux, Initial residual = 0.000364098, Final residual = 2.60816e-05, No Iterations 4
smoothSolver:  Solving for Uy, Initial residual = 0.000182212, Final residual = 1.29125e-05, No Iterations 4
GAMG:  Solving for p, Initial residual = 0.000491848, Final residual = 3.86261e-05, No Iterations 2
time step continuity errors : sum local = 6.72983e-06, global = -9.75569e-07, cumulative = -0.00113933
smoothSolver:  Solving for nuTilda, Initial residual = 8.08461e-06, Final residual = 4.77721e-07, No Iterations 4
ExecutionTime = 43.75 s  ClockTime = 49 s

Time = 470

smoothSolver:  Solving for Ux, Initial residual = 0.000362198, Final residual = 2.59496e-05, No Iterations 4
smoothSolver:  Solving for Uy, Initial residual = 0.000180797, Final residual = 1.28209e-05, No Iterations 4
GAMG:  Solving for p, Initial residual = 0.00048773, Final residual = 3.66391e-05, No Iterations 2
time step continuity errors : sum local = 6.38462e-06, global = -9.07609e-07, cumulative = -0.00114024
smoothSolver:  Solving for nuTilda, Initial residual = 8.01606e-06, Final residual = 4.73527e-07, No Iterations 4
ExecutionTime = 43.84 s  ClockTime = 49 s

Time = 471

smoothSolver:  Solving for Ux, Initial residual = 0.000360319, Final residual = 2.58173e-05, No Iterations 4
smoothSolver:  Solving for Uy, Initial residual = 0.000179342, Final residual = 1.27232e-05, No Iterations 4
GAMG:  Solving for p, Initial residual = 0.000483412, Final residual = 4.47174e-05, No Iterations 1
time step continuity errors : sum local = 7.79336e-06, global = 1.02951e-06, cumulative = -0.00113921
smoothSolver:  Solving for nuTilda, Initial residual = 7.94781e-06, Final residual = 4.69329e-07, No Iterations 4
ExecutionTime = 43.92 s  ClockTime = 49 s

Time = 472

smoothSolver:  Solving for Ux, Initial residual = 0.000358235, Final residual = 2.56415e-05, No Iterations 4
smoothSolver:  Solving for Uy, Initial residual = 0.000177398, Final residual = 1.25743e-05, No Iterations 4
GAMG:  Solving for p, Initial residual = 0.000473533, Final residual = 4.18448e-05, No Iterations 2
time step continuity errors : sum local = 7.29203e-06, global = -1.17837e-06, cumulative = -0.00114039
smoothSolver:  Solving for nuTilda, Initial residual = 7.87989e-06, Final residual = 4.65128e-07, No Iterations 4
ExecutionTime = 44.03 s  ClockTime = 49 s

Time = 473

smoothSolver:  Solving for Ux, Initial residual = 0.000356464, Final residual = 2.55249e-05, No Iterations 4
smoothSolver:  Solving for Uy, Initial residual = 0.000175866, Final residual = 1.24723e-05, No Iterations 4
GAMG:  Solving for p, Initial residual = 0.000471628, Final residual = 4.14109e-05, No Iterations 2
time step continuity errors : sum local = 7.21779e-06, global = -1.13034e-06, cumulative = -0.00114152
smoothSolver:  Solving for nuTilda, Initial residual = 7.81148e-06, Final residual = 4.609e-07, No Iterations 4
ExecutionTime = 44.12 s  ClockTime = 49 s

Time = 474

smoothSolver:  Solving for Ux, Initial residual = 0.000354668, Final residual = 2.54077e-05, No Iterations 4
smoothSolver:  Solving for Uy, Initial residual = 0.00017453, Final residual = 1.23843e-05, No Iterations 4
GAMG:  Solving for p, Initial residual = 0.00047102, Final residual = 4.64308e-05, No Iterations 1
time step continuity errors : sum local = 8.09416e-06, global = 8.79347e-07, cumulative = -0.00114064
smoothSolver:  Solving for nuTilda, Initial residual = 7.74271e-06, Final residual = 4.56683e-07, No Iterations 4
ExecutionTime = 44.2 s  ClockTime = 49 s

Time = 475

smoothSolver:  Solving for Ux, Initial residual = 0.000352597, Final residual = 2.52349e-05, No Iterations 4
smoothSolver:  Solving for Uy, Initial residual = 0.000172714, Final residual = 1.22454e-05, No Iterations 4
GAMG:  Solving for p, Initial residual = 0.000459259, Final residual = 4.17434e-05, No Iterations 2
time step continuity errors : sum local = 7.27636e-06, global = -1.14015e-06, cumulative = -0.00114178
smoothSolver:  Solving for nuTilda, Initial residual = 7.67392e-06, Final residual = 4.52518e-07, No Iterations 4
ExecutionTime = 44.3 s  ClockTime = 49 s

Time = 476

smoothSolver:  Solving for Ux, Initial residual = 0.000350782, Final residual = 2.51172e-05, No Iterations 4
smoothSolver:  Solving for Uy, Initial residual = 0.000171511, Final residual = 1.21719e-05, No Iterations 4
GAMG:  Solving for p, Initial residual = 0.00045734, Final residual = 3.82665e-05, No Iterations 2
time step continuity errors : sum local = 6.67162e-06, global = -9.6615e-07, cumulative = -0.00114274
smoothSolver:  Solving for nuTilda, Initial residual = 7.60532e-06, Final residual = 4.48364e-07, No Iterations 4
ExecutionTime = 44.4 s  ClockTime = 49 s

Time = 477

smoothSolver:  Solving for Ux, Initial residual = 0.000348944, Final residual = 2.4993e-05, No Iterations 4
smoothSolver:  Solving for Uy, Initial residual = 0.000170332, Final residual = 1.20975e-05, No Iterations 4
GAMG:  Solving for p, Initial residual = 0.000454247, Final residual = 4.23729e-05, No Iterations 1
time step continuity errors : sum local = 7.38875e-06, global = 8.57092e-07, cumulative = -0.00114189
smoothSolver:  Solving for nuTilda, Initial residual = 7.53741e-06, Final residual = 4.44224e-07, No Iterations 4
ExecutionTime = 44.5 s  ClockTime = 49 s

Time = 478

smoothSolver:  Solving for Ux, Initial residual = 0.0003469, Final residual = 2.48199e-05, No Iterations 4
smoothSolver:  Solving for Uy, Initial residual = 0.000168491, Final residual = 1.19564e-05, No Iterations 4
GAMG:  Solving for p, Initial residual = 0.000443282, Final residual = 3.68306e-05, No Iterations 2
time step continuity errors : sum local = 6.42176e-06, global = -9.76067e-07, cumulative = -0.00114286
smoothSolver:  Solving for nuTilda, Initial residual = 7.47022e-06, Final residual = 4.40129e-07, No Iterations 4
ExecutionTime = 44.59 s  ClockTime = 49 s

Time = 479

smoothSolver:  Solving for Ux, Initial residual = 0.000345109, Final residual = 2.46956e-05, No Iterations 4
smoothSolver:  Solving for Uy, Initial residual = 0.000167064, Final residual = 1.18618e-05, No Iterations 4
GAMG:  Solving for p, Initial residual = 0.000439937, Final residual = 3.59973e-05, No Iterations 2
time step continuity errors : sum local = 6.27751e-06, global = -9.4078e-07, cumulative = -0.0011438
smoothSolver:  Solving for nuTilda, Initial residual = 7.40285e-06, Final residual = 4.36037e-07, No Iterations 4
ExecutionTime = 44.69 s  ClockTime = 50 s

Time = 480

smoothSolver:  Solving for Ux, Initial residual = 0.00034333, Final residual = 2.45726e-05, No Iterations 4
smoothSolver:  Solving for Uy, Initial residual = 0.000165695, Final residual = 1.17695e-05, No Iterations 4
GAMG:  Solving for p, Initial residual = 0.000437485, Final residual = 4.24123e-05, No Iterations 1
time step continuity errors : sum local = 7.39734e-06, global = 9.60446e-07, cumulative = -0.00114284
smoothSolver:  Solving for nuTilda, Initial residual = 7.33671e-06, Final residual = 4.31961e-07, No Iterations 4
ExecutionTime = 44.78 s  ClockTime = 50 s

Time = 481

smoothSolver:  Solving for Ux, Initial residual = 0.00034132, Final residual = 2.4405e-05, No Iterations 4
smoothSolver:  Solving for Uy, Initial residual = 0.000163927, Final residual = 1.16342e-05, No Iterations 4
GAMG:  Solving for p, Initial residual = 0.000427761, Final residual = 3.97958e-05, No Iterations 2
time step continuity errors : sum local = 6.94042e-06, global = -1.13394e-06, cumulative = -0.00114398
smoothSolver:  Solving for nuTilda, Initial residual = 7.27055e-06, Final residual = 4.2794e-07, No Iterations 4
ExecutionTime = 44.87 s  ClockTime = 50 s

Time = 482

smoothSolver:  Solving for Ux, Initial residual = 0.000339602, Final residual = 2.42931e-05, No Iterations 4
smoothSolver:  Solving for Uy, Initial residual = 0.000162586, Final residual = 1.15475e-05, No Iterations 4
GAMG:  Solving for p, Initial residual = 0.000426698, Final residual = 3.80913e-05, No Iterations 2
time step continuity errors : sum local = 6.64446e-06, global = -1.02891e-06, cumulative = -0.00114501
smoothSolver:  Solving for nuTilda, Initial residual = 7.20449e-06, Final residual = 4.23924e-07, No Iterations 4
ExecutionTime = 44.97 s  ClockTime = 50 s

Time = 483

smoothSolver:  Solving for Ux, Initial residual = 0.000337851, Final residual = 2.41774e-05, No Iterations 4
smoothSolver:  Solving for Uy, Initial residual = 0.000161387, Final residual = 1.14701e-05, No Iterations 4
GAMG:  Solving for p, Initial residual = 0.000425458, Final residual = 4.17424e-05, No Iterations 1
time step continuity errors : sum local = 7.2826e-06, global = 8.12094e-07, cumulative = -0.00114419
smoothSolver:  Solving for nuTilda, Initial residual = 7.13852e-06, Final residual = 4.19926e-07, No Iterations 4
ExecutionTime = 45.06 s  ClockTime = 50 s

Time = 484

smoothSolver:  Solving for Ux, Initial residual = 0.000335856, Final residual = 2.40107e-05, No Iterations 4
smoothSolver:  Solving for Uy, Initial residual = 0.000159678, Final residual = 1.13393e-05, No Iterations 4
GAMG:  Solving for p, Initial residual = 0.000414561, Final residual = 3.67541e-05, No Iterations 2
time step continuity errors : sum local = 6.41181e-06, global = -9.95154e-07, cumulative = -0.00114519
smoothSolver:  Solving for nuTilda, Initial residual = 7.073e-06, Final residual = 4.15982e-07, No Iterations 4
ExecutionTime = 45.15 s  ClockTime = 50 s

Time = 485

smoothSolver:  Solving for Ux, Initial residual = 0.000334099, Final residual = 2.3892e-05, No Iterations 4
smoothSolver:  Solving for Uy, Initial residual = 0.00015846, Final residual = 1.12624e-05, No Iterations 4
GAMG:  Solving for p, Initial residual = 0.000412319, Final residual = 3.44374e-05, No Iterations 2
time step continuity errors : sum local = 6.00871e-06, global = -8.87088e-07, cumulative = -0.00114608
smoothSolver:  Solving for nuTilda, Initial residual = 7.00761e-06, Final residual = 4.12047e-07, No Iterations 4
ExecutionTime = 45.25 s  ClockTime = 50 s

Time = 486

smoothSolver:  Solving for Ux, Initial residual = 0.000332337, Final residual = 2.37702e-05, No Iterations 4
smoothSolver:  Solving for Uy, Initial residual = 0.000157262, Final residual = 1.11844e-05, No Iterations 4
GAMG:  Solving for p, Initial residual = 0.000409583, Final residual = 3.92137e-05, No Iterations 1
time step continuity errors : sum local = 6.84313e-06, global = 8.79794e-07, cumulative = -0.0011452
smoothSolver:  Solving for nuTilda, Initial residual = 6.94256e-06, Final residual = 4.0813e-07, No Iterations 4
ExecutionTime = 45.33 s  ClockTime = 50 s

Time = 487

smoothSolver:  Solving for Ux, Initial residual = 0.000330372, Final residual = 2.36056e-05, No Iterations 4
smoothSolver:  Solving for Uy, Initial residual = 0.000155563, Final residual = 1.10543e-05, No Iterations 4
GAMG:  Solving for p, Initial residual = 0.000400026, Final residual = 3.57168e-05, No Iterations 2
time step continuity errors : sum local = 6.23243e-06, global = -9.89124e-07, cumulative = -0.00114619
smoothSolver:  Solving for nuTilda, Initial residual = 6.87794e-06, Final residual = 4.04254e-07, No Iterations 4
ExecutionTime = 45.42 s  ClockTime = 50 s

Time = 488

smoothSolver:  Solving for Ux, Initial residual = 0.000328674, Final residual = 2.34898e-05, No Iterations 4
smoothSolver:  Solving for Uy, Initial residual = 0.000154223, Final residual = 1.09658e-05, No Iterations 4
GAMG:  Solving for p, Initial residual = 0.000398145, Final residual = 3.47645e-05, No Iterations 2
time step continuity errors : sum local = 6.06734e-06, global = -9.37603e-07, cumulative = -0.00114712
smoothSolver:  Solving for nuTilda, Initial residual = 6.81322e-06, Final residual = 4.00362e-07, No Iterations 4
ExecutionTime = 45.51 s  ClockTime = 50 s

Time = 489

smoothSolver:  Solving for Ux, Initial residual = 0.000326966, Final residual = 2.33736e-05, No Iterations 4
smoothSolver:  Solving for Uy, Initial residual = 0.000152976, Final residual = 1.08828e-05, No Iterations 4
GAMG:  Solving for p, Initial residual = 0.000396808, Final residual = 3.9412e-05, No Iterations 1
time step continuity errors : sum local = 6.87956e-06, global = 8.68293e-07, cumulative = -0.00114625
smoothSolver:  Solving for nuTilda, Initial residual = 6.74881e-06, Final residual = 3.96469e-07, No Iterations 4
ExecutionTime = 45.56 s  ClockTime = 50 s

Time = 490

smoothSolver:  Solving for Ux, Initial residual = 0.000325025, Final residual = 2.32125e-05, No Iterations 4
smoothSolver:  Solving for Uy, Initial residual = 0.000151347, Final residual = 1.0758e-05, No Iterations 4
GAMG:  Solving for p, Initial residual = 0.000387293, Final residual = 3.63008e-05, No Iterations 2
time step continuity errors : sum local = 6.33602e-06, global = -1.02422e-06, cumulative = -0.00114728
smoothSolver:  Solving for nuTilda, Initial residual = 6.68476e-06, Final residual = 3.92617e-07, No Iterations 4
ExecutionTime = 45.62 s  ClockTime = 50 s

Time = 491

smoothSolver:  Solving for Ux, Initial residual = 0.000323344, Final residual = 2.3101e-05, No Iterations 4
smoothSolver:  Solving for Uy, Initial residual = 0.00015013, Final residual = 1.06803e-05, No Iterations 4
GAMG:  Solving for p, Initial residual = 0.000386172, Final residual = 3.42288e-05, No Iterations 2
time step continuity errors : sum local = 5.97549e-06, global = -9.13949e-07, cumulative = -0.00114819
smoothSolver:  Solving for nuTilda, Initial residual = 6.62095e-06, Final residual = 3.88758e-07, No Iterations 4
ExecutionTime = 45.67 s  ClockTime = 50 s

Time = 492

smoothSolver:  Solving for Ux, Initial residual = 0.000321639, Final residual = 2.29857e-05, No Iterations 4
smoothSolver:  Solving for Uy, Initial residual = 0.000149002, Final residual = 1.06074e-05, No Iterations 4
GAMG:  Solving for p, Initial residual = 0.00038455, Final residual = 3.77569e-05, No Iterations 1
time step continuity errors : sum local = 6.59248e-06, global = 8.00786e-07, cumulative = -0.00114739
smoothSolver:  Solving for nuTilda, Initial residual = 6.5576e-06, Final residual = 3.84907e-07, No Iterations 4
ExecutionTime = 45.73 s  ClockTime = 51 s

Time = 493

smoothSolver:  Solving for Ux, Initial residual = 0.000319719, Final residual = 2.28257e-05, No Iterations 4
smoothSolver:  Solving for Uy, Initial residual = 0.000147404, Final residual = 1.04852e-05, No Iterations 4
GAMG:  Solving for p, Initial residual = 0.000374974, Final residual = 3.36441e-05, No Iterations 2
time step continuity errors : sum local = 5.87398e-06, global = -9.22799e-07, cumulative = -0.00114831
smoothSolver:  Solving for nuTilda, Initial residual = 6.49461e-06, Final residual = 3.81103e-07, No Iterations 4
ExecutionTime = 45.79 s  ClockTime = 51 s

Time = 494

smoothSolver:  Solving for Ux, Initial residual = 0.000318039, Final residual = 2.27106e-05, No Iterations 4
smoothSolver:  Solving for Uy, Initial residual = 0.000146199, Final residual = 1.04074e-05, No Iterations 4
GAMG:  Solving for p, Initial residual = 0.000373161, Final residual = 3.2139e-05, No Iterations 2
time step continuity errors : sum local = 5.61216e-06, global = -8.52242e-07, cumulative = -0.00114917
smoothSolver:  Solving for nuTilda, Initial residual = 6.43165e-06, Final residual = 3.77302e-07, No Iterations 4
ExecutionTime = 45.84 s  ClockTime = 51 s

Time = 495

smoothSolver:  Solving for Ux, Initial residual = 0.000316353, Final residual = 2.2594e-05, No Iterations 4
smoothSolver:  Solving for Uy, Initial residual = 0.00014504, Final residual = 1.03311e-05, No Iterations 4
GAMG:  Solving for p, Initial residual = 0.000371287, Final residual = 3.65914e-05, No Iterations 1
time step continuity errors : sum local = 6.39061e-06, global = 8.51794e-07, cumulative = -0.00114832
smoothSolver:  Solving for nuTilda, Initial residual = 6.3692e-06, Final residual = 3.7353e-07, No Iterations 4
ExecutionTime = 45.89 s  ClockTime = 51 s

Time = 496

smoothSolver:  Solving for Ux, Initial residual = 0.00031446, Final residual = 2.24369e-05, No Iterations 4
smoothSolver:  Solving for Uy, Initial residual = 0.000143478, Final residual = 1.02116e-05, No Iterations 4
GAMG:  Solving for p, Initial residual = 0.000362645, Final residual = 3.38633e-05, No Iterations 2
time step continuity errors : sum local = 5.91378e-06, global = -9.57652e-07, cumulative = -0.00114927
smoothSolver:  Solving for nuTilda, Initial residual = 6.30794e-06, Final residual = 3.69844e-07, No Iterations 4
ExecutionTime = 45.94 s  ClockTime = 51 s

Time = 497

smoothSolver:  Solving for Ux, Initial residual = 0.000312824, Final residual = 2.23262e-05, No Iterations 4
smoothSolver:  Solving for Uy, Initial residual = 0.000142255, Final residual = 1.01317e-05, No Iterations 4
GAMG:  Solving for p, Initial residual = 0.000361562, Final residual = 3.25286e-05, No Iterations 2
time step continuity errors : sum local = 5.68171e-06, global = -8.85837e-07, cumulative = -0.00115016
smoothSolver:  Solving for nuTilda, Initial residual = 6.24678e-06, Final residual = 3.66167e-07, No Iterations 4
ExecutionTime = 46 s  ClockTime = 51 s

Time = 498

smoothSolver:  Solving for Ux, Initial residual = 0.00031117, Final residual = 2.22137e-05, No Iterations 4
smoothSolver:  Solving for Uy, Initial residual = 0.000141123, Final residual = 1.00571e-05, No Iterations 4
GAMG:  Solving for p, Initial residual = 0.000360516, Final residual = 2.71966e-05, No Iterations 2
time step continuity errors : sum local = 4.75114e-06, global = -5.79251e-07, cumulative = -0.00115074
smoothSolver:  Solving for nuTilda, Initial residual = 6.18545e-06, Final residual = 3.62543e-07, No Iterations 4
ExecutionTime = 46.06 s  ClockTime = 51 s

Time = 499

smoothSolver:  Solving for Ux, Initial residual = 0.000309434, Final residual = 2.20912e-05, No Iterations 4
smoothSolver:  Solving for Uy, Initial residual = 0.000140045, Final residual = 9.98443e-06, No Iterations 4
GAMG:  Solving for p, Initial residual = 0.00035642, Final residual = 3.08128e-05, No Iterations 1
time step continuity errors : sum local = 5.38345e-06, global = 4.05809e-07, cumulative = -0.00115033
smoothSolver:  Solving for nuTilda, Initial residual = 6.12421e-06, Final residual = 3.58924e-07, No Iterations 4
ExecutionTime = 46.12 s  ClockTime = 51 s

Time = 500

smoothSolver:  Solving for Ux, Initial residual = 0.000307557, Final residual = 2.19318e-05, No Iterations 4
smoothSolver:  Solving for Uy, Initial residual = 0.000138445, Final residual = 9.86108e-06, No Iterations 4
GAMG:  Solving for p, Initial residual = 0.0003471, Final residual = 2.64736e-05, No Iterations 2
time step continuity errors : sum local = 4.62501e-06, global = -6.79346e-07, cumulative = -0.00115101
smoothSolver:  Solving for nuTilda, Initial residual = 6.06309e-06, Final residual = 3.55329e-07, No Iterations 4
ExecutionTime = 46.18 s  ClockTime = 51 s

End

