** Calculix structure data file generated from OpenVSP 3.36.0
** WingGeom_Struct0
** Num_Nodes:       62631
** Num_Els:         50368
** Num_Tris:        50368
** Num_Quads:       0
** Num_Beams:       0
** Node_Offset:     0
** Element_Offset:  0

** Fixed Point: FixPoint1_XYZ WingGeom_Struct0
*NODE, NSET=NFixPoint1_XYZ_WingGeom_Struct0
1,0.281400,0.000000,-0.023529

** Fixed Point: FixPoint2_Y WingGeom_Struct0
*NODE, NSET=NFixPoint2_Y_WingGeom_Struct0
2,0.281400,0.000000,0.096550

** Fixed Point: FixPoint3_YZ WingGeom_Struct0
*NODE, NSET=NFixPoint3_YZ_WingGeom_Struct0
3,0.365000,0.000000,-0.019471

** Skin WingGeom_Struct0
*NODE, NSET=NSkin_WingGeom_Struct0
281,0.003631,1.292080,-0.007417
282,0.000000,1.294114,0.000000
283,0.002983,1.296040,-0.006537
284,0.001816,1.293097,-0.003709
285,0.001167,1.297057,-0.002828
299,0.265417,0.116793,-0.024326
300,0.263588,0.108396,-0.024417
301,0.273409,0.108396,-0.023927
310,0.005106,0.107308,-0.009029
312,0.003721,0.103654,-0.007344
313,0.006392,0.103654,-0.010148
322,0.271579,0.290000,-0.024017
340,0.271579,0.310000,-0.024017
347,0.265660,0.483721,-0.024314
348,0.273530,0.481860,-0.023921
349,0.273530,0.491860,-0.023921
368,0.266217,0.516464,-0.024287
369,0.264006,0.508232,-0.024396
370,0.273809,0.508232,-0.023907
372,0.266131,0.603953,-0.024291
** ... 31876 like lines cut

** RibArray WingGeom_Struct0
*NODE, NSET=NRibArray_WingGeom_Struct0
41179,0.100298,0.100000,0.054221
41180,0.103421,0.100000,0.061076
41181,0.093856,0.100000,0.058092
41182,0.394190,0.100000,-0.002711
41183,0.404785,0.100000,-0.017812
41184,0.384895,0.100000,-0.018615
41185,0.399488,0.100000,-0.010262
41186,0.394840,0.100000,-0.018213
41187,0.389542,0.100000,-0.010663
41188,0.030025,0.100000,-0.006058
41189,0.029769,0.100000,-0.013439
41190,0.023317,0.100000,-0.011231
41191,0.098312,0.100000,-0.011112
41192,0.092211,0.100000,-0.019610
41193,0.101897,0.100000,-0.019946
41194,0.192973,0.100000,-0.014061
41195,0.188182,0.100000,-0.020986
41196,0.197981,0.100000,-0.020625
41197,0.042430,0.100000,-0.012814
41198,0.058921,0.100000,-0.012192
** ... 14143 like lines cut

** Spar_Front WingGeom_Struct0
*NODE, NSET=NSpar_Front_WingGeom_Struct0
55626,0.281400,0.479203,0.001952
55627,0.281400,0.479601,-0.010788
55628,0.281400,0.489601,-0.001621
55629,0.281400,0.490000,-0.014361
55630,0.281400,0.000000,-0.003530
55631,0.281400,0.016706,-0.007551
55632,0.281400,0.008353,-0.005541
55633,0.281400,0.008353,-0.015540
55634,0.281400,0.000000,-0.013529
55635,0.281400,1.310377,0.078091
55636,0.281400,1.315189,0.087321
55637,0.281400,1.305189,0.087321
55638,0.281400,0.090000,-0.014360
55639,0.281400,0.110000,-0.014360
55640,0.281400,0.075098,0.001429
55641,0.281400,0.087224,0.015378
55642,0.281400,0.081161,0.008404
55643,0.281400,0.093612,0.005093
55644,0.281400,0.087549,-0.001882
55645,0.281400,0.119506,0.000838
** ... 3374 like lines cut

** Spar_Rear WingGeom_Struct0
*NODE, NSET=NSpar_Rear_WingGeom_Struct0
59020,0.365000,0.000000,0.000281
59021,0.365000,0.016087,-0.004522
59022,0.365000,0.008044,-0.002120
59023,0.365000,0.008044,-0.011996
59024,0.365000,0.000000,-0.009595
59025,0.365000,0.090000,-0.009461
59026,0.365000,0.110000,-0.009461
59027,0.365000,0.290000,-0.009804
59028,0.365000,0.313726,-0.006830
59029,0.365000,0.306863,-0.003483
59030,0.365000,0.306863,-0.013150
59031,0.365000,0.710000,-0.009804
59032,0.365000,0.690000,-0.009804
59033,0.365000,1.090000,-0.009774
59034,0.365000,1.109500,-0.009774
59035,0.365000,1.225099,-0.005729
59036,0.365000,1.226050,-0.012600
59037,0.365000,1.235050,-0.012600
59038,0.365000,0.000000,0.079379
59039,0.365000,0.010000,0.089091
** ... 3592 like lines cut

** Spar_Upper WingGeom_Struct0
*NODE, NSET=NSpar_Upper_WingGeom_Struct0
17382,0.341150,0.478672,0.098778
17384,0.336186,0.489336,0.098702
17385,0.344231,0.489336,0.098804
17393,0.299061,0.000000,0.097543
17394,0.305360,0.019785,0.097827
17396,0.302210,0.009893,0.097685
17397,0.293380,0.018893,0.097189
17398,0.290230,0.009000,0.097047
17400,0.290230,0.000000,0.097047
17401,0.295261,0.037710,0.097354
17402,0.300311,0.028747,0.097591
17403,0.288331,0.027855,0.096952
17405,0.295118,0.061594,0.097347
17407,0.288259,0.063797,0.096949
17408,0.288259,0.071797,0.096949
17412,0.341714,0.079959,0.098784
17414,0.336267,0.089979,0.098701
17415,0.344528,0.089979,0.098807
17416,0.303963,0.079142,0.097767
17418,0.301497,0.089571,0.097655
** ... 2107 like lines cut

** Spar_Lower WingGeom_Struct0
*NODE, NSET=NSpar_Lower_WingGeom_Struct0
7,0.297143,1.345421,-0.022736
8,0.305787,1.324581,-0.022303
10,0.301465,1.335001,-0.022519
11,0.293593,1.330791,-0.022915
12,0.289271,1.341210,-0.023132
20,0.349363,1.260383,-0.020185
22,0.357181,1.261692,-0.019828
23,0.357181,1.270692,-0.019828
26,0.299410,0.937677,-0.022622
28,0.290405,0.938839,-0.023075
29,0.290405,0.928839,-0.023075
69,0.347326,0.000000,-0.020281
71,0.356163,0.010000,-0.019876
73,0.356163,0.000000,-0.019876
77,0.356163,0.110000,-0.019876
81,0.356163,0.090000,-0.019876
83,0.343224,0.274990,-0.020474
86,0.345276,0.287495,-0.020377
87,0.356163,0.290000,-0.019876
88,0.354112,0.277495,-0.019972
** ... 2118 like lines cut



** TE_CAP_UPPER WingGeom_Struct0
*NODE, NSET=NTE_CAP_UPPER_WingGeom_Struct0
17856,0.978497,0.115994,0.005877
17858,0.979695,0.107997,0.005555
17859,0.970123,0.107997,0.008104
17861,0.990446,0.109500,0.002616
17866,0.961749,0.319000,0.010331
17869,0.961749,0.309500,0.010331
17871,0.971320,0.309500,0.007781
17872,0.990446,0.309500,0.002616
17874,0.990446,0.290500,0.002616
17875,0.961749,0.481000,0.010331
17878,0.971321,0.490500,0.007781
17880,0.961749,0.490500,0.010331
17881,0.977380,0.519308,0.006178
17882,0.979136,0.509654,0.005705
17883,0.969565,0.509654,0.008254
17884,0.990446,0.510000,0.002616
17886,0.990446,0.490500,0.002616
17887,0.961749,0.280000,0.010331
17888,0.978515,0.283870,0.005873
17889,0.970132,0.281935,0.008102
** ... 1055 like lines cut

** TE_CAP_LOWER WingGeom_Struct0
*NODE, NSET=NTE_CAP_LOWER_WingGeom_Struct0
13,0.978859,0.121878,-0.000138
16,0.989429,0.120439,-0.000069
17,0.990371,0.109500,-0.000062
18,0.979801,0.110939,-0.000131
32,0.961485,0.119000,-0.000281
34,0.961485,0.109500,-0.000281
35,0.971113,0.109500,-0.000203
41,0.990371,0.309500,-0.000062
42,0.978933,0.278037,-0.000138
44,0.979838,0.289018,-0.000131
45,0.990371,0.290500,-0.000062
46,0.989466,0.279518,-0.000069
48,0.980775,0.518124,-0.000124
50,0.980759,0.509062,-0.000124
51,0.990388,0.509062,-0.000062
54,0.990371,0.490500,-0.000062
56,0.961485,0.519000,-0.000281
58,0.971130,0.518562,-0.000202
59,0.971130,0.509062,-0.000202
60,0.961485,0.509500,-0.000281
** ... 1049 like lines cut



** Intersections WingGeom_Struct0
*NODE, NSET=Nintersections_WingGeom_Struct0
9,0.281400,1.337000,-0.023528
14,1.000000,0.119000,0.000000
15,0.980742,0.100000,-0.000124
19,0.365000,1.263001,-0.019471
21,0.365000,1.281001,-0.019471
24,0.365000,1.272001,-0.019471
25,0.281400,0.940000,-0.023528
27,0.281400,0.920000,-0.023528
30,0.281400,0.930000,-0.023528
31,0.961485,0.100000,-0.000281
33,0.971113,0.100000,-0.000203
36,1.000000,0.319000,0.000000
37,1.000000,0.300000,0.000000
38,0.980742,0.300000,-0.000124
39,1.000000,0.309500,0.000000
40,0.990371,0.300000,-0.000062
43,1.000000,0.281000,0.000000
47,0.980742,0.500000,-0.000124
49,1.000000,0.500000,0.000000
52,0.990371,0.500000,-0.000062
** ... 3131 like lines cut

** Skin WingGeom_Struct0
*ELEMENT, TYPE=S6, ELSET=ESkin_WingGeom_Struct0_0
2,280,281,282,283,284,285
3,298,299,275,300,301,302
4,309,310,311,312,313,314
5,317,321,315,322,323,320
6,334,315,321,335,323,340
7,343,347,341,348,349,346
8,367,368,341,369,370,371
9,372,373,374,375,376,377
10,378,379,380,381,382,383
11,384,385,386,387,388,389
12,390,391,392,393,394,395
13,309,396,397,398,399,400
14,401,402,403,404,405,406
15,407,385,408,409,410,411
16,412,413,408,414,415,416
17,417,418,419,420,421,422
18,423,424,425,426,427,428
19,429,391,430,431,432,433
20,434,429,430,435,433,436
21,437,438,439,440,441,442
** ... 16608 like lines cut

** RibArray WingGeom_Struct0
*ELEMENT, TYPE=S6, ELSET=ERibArray_WingGeom_Struct0_0
16630,23405,37915,41179,37917,41180,41181
16631,41182,41183,41184,41185,41186,41187
16632,41188,2793,4842,41189,13428,41190
16633,5038,5037,41191,5041,41192,41193
16634,6583,41194,6224,41195,41196,16413
16635,41197,41198,1406,41199,41200,41201
16636,2793,41197,1406,41202,41201,2796
16637,5193,41203,2639,41204,41205,10339
16638,41206,41207,298,41208,41209,41210
16639,41211,41212,41213,41214,41215,41216
16640,41217,41218,41219,41220,41221,41222
16641,41212,41219,276,41223,41224,41225
16642,275,41212,276,41226,41225,278
16643,292,41218,306,41227,41228,9258
16644,41229,41230,41206,41231,41232,41233
16645,41234,41235,41236,41237,41238,41239
16646,76,41240,41184,41241,41242,41243
16647,76,41235,41240,41244,41245,41241
16648,41246,41218,41217,41247,41220,41248
16649,41183,41249,41250,41251,41252,41253
** ... 550 like lines cut

*ELEMENT, TYPE=S6, ELSET=ERibArray_WingGeom_Struct0_1
17200,42306,3963,12380,42307,12381,42308
17201,5612,6563,42309,6596,42310,42311
17202,42312,42313,42314,42315,42316,42317
17203,42318,42306,42319,42320,42321,42322
17204,1363,42323,42324,42325,42326,42327
17205,3619,6393,42314,6394,42328,42329
17206,3619,42330,12380,42331,42332,14679
17207,42312,42333,42313,42334,42335,42315
17208,42336,5353,3965,42337,5355,42338
17209,1363,42324,2802,42327,42339,2805
17210,42340,42341,42342,42343,42344,42345
17211,42346,42347,42348,42349,42350,42351
17212,42352,42353,42354,42355,42356,42357
17213,22539,22445,42358,22542,42359,42360
17214,42346,42361,42362,42363,42364,42365
17215,42362,42361,321,42364,42366,42367
17216,42368,42369,42370,42371,42372,42373
17217,315,42374,316,42375,42376,318
17218,316,42374,42377,42376,42378,42379
17219,42374,42380,42377,42381,42382,42378
** ... 540 like lines cut

*ELEMENT, TYPE=S6, ELSET=ERibArray_WingGeom_Struct0_2
17760,22357,20384,43413,25943,43414,43415
17761,43416,1456,1458,43417,1461,43418
17762,2274,1702,43419,2278,43420,43421
17763,43422,5599,11851,43423,14363,43424
17764,1429,1431,43425,1434,43426,43427
17765,1456,43428,1431,43429,43430,2131
17766,43431,43432,43433,43434,43435,43436
17767,43437,43438,103,43439,43440,43441
17768,43442,43443,43444,43445,43446,43447
17769,5109,43448,5104,43449,43450,5115
17770,43451,43443,43452,43453,43454,43455
17771,43456,43457,367,43458,43459,43460
17772,43461,43462,43463,43464,43465,43466
17773,43467,43468,43469,43470,43471,43472
17774,43462,43469,342,43473,43474,43475
17775,341,43462,342,43476,43475,344
17776,360,356,43477,9573,43478,43479
17777,43480,43481,43456,43482,43483,43484
17778,43485,43486,43487,43488,43489,43490
17779,103,43438,43452,43440,43491,43492
** ... 526 like lines cut

*ELEMENT, TYPE=S6, ELSET=ERibArray_WingGeom_Struct0_3
18306,44492,44493,44494,44495,44496,44497
18307,203,44498,44499,44500,44501,44502
18308,44499,44503,44504,44505,44506,44507
18309,44508,44509,44510,44511,44512,44513
18310,6106,44514,5158,44515,44516,6109
18311,44517,44518,44514,44519,44520,44521
18312,44522,44523,1447,44524,44525,44526
18313,44523,44527,44528,44529,44530,44531
18314,44532,4969,4971,44533,4974,44534
18315,44523,2047,1447,44535,8417,44525
18316,1652,44536,1650,44537,44538,1655
18317,44539,44540,44541,44542,44543,44544
18318,44545,44546,490,44547,44548,44549
18319,44550,44551,44552,44553,44554,44555
18320,44556,44557,44558,44559,44560,44561
18321,44551,44558,476,44562,44563,44564
18322,485,44551,476,44565,44564,489
18323,498,475,44566,9734,44567,44568
18324,44569,44570,44545,44571,44572,44573
18325,44574,44575,44576,44577,44578,44579
** ... 552 like lines cut

*ELEMENT, TYPE=S6, ELSET=ERibArray_WingGeom_Struct0_4
18878,45623,45624,45625,45626,45627,45628
18879,45629,45630,45631,45632,45633,45634
18880,45635,45636,45637,45638,45639,45640
18881,45641,5644,14556,45642,14560,45643
18882,45644,45645,22694,45646,45647,45648
18883,45649,45650,45651,45652,45653,45654
18884,45650,45636,45655,45656,45657,45658
18885,19625,45659,18914,45660,45661,24403
18886,45662,45645,45663,45664,45665,45666
18887,2512,45667,2514,45668,45669,2517
18888,45670,45671,45672,45673,45674,45675
18889,45676,45677,45670,45678,45679,45680
18890,45681,45682,513,45683,45684,45685
18891,45686,45687,45688,45689,45690,45691
18892,45692,45693,504,45694,45695,45696
18893,503,45692,504,45697,45696,506
18894,520,45693,258,45698,45699,9556
18895,45700,45701,45681,45702,45703,45704
18896,45705,45706,45707,45708,45709,45710
18897,220,45711,45625,45712,45713,45714
** ... 540 like lines cut

*ELEMENT, TYPE=S6, ELSET=ERibArray_WingGeom_Struct0_5
19438,46730,46731,46732,46733,46734,46735
19439,46736,46730,46732,46737,46735,46738
19440,46736,17713,46739,46740,46741,46742
19441,46743,46739,17715,46744,46745,46746
19442,32937,17713,46736,32938,46740,46747
19443,46748,19401,32937,46749,37034,46750
19444,2336,1588,46751,3356,46752,46753
19445,46754,46755,46756,46757,46758,46759
19446,1645,46760,1644,46761,46762,1647
19447,1357,1359,46763,1362,46764,46765
19448,46766,46730,46743,46767,46768,46769
19449,553,554,46770,556,46771,46772
19450,564,46773,554,46774,46775,565
19451,4965,612,46776,4968,46777,46778
19452,46779,46780,46781,46782,46783,46784
19453,235,46780,46785,46786,46787,46788
19454,46785,46789,46790,46791,46792,46793
19455,46773,46794,46770,46795,46796,46797
19456,46798,46799,46800,46801,46802,46803
19457,46804,46760,1645,46805,46761,46806
** ... 530 like lines cut

*ELEMENT, TYPE=S6, ELSET=ERibArray_WingGeom_Struct0_6
19988,1469,47817,1468,47818,47819,1471
19989,47820,5924,5926,47821,5929,47822
19990,33051,23660,47823,34027,47824,47825
19991,47826,47817,47827,47828,47829,47830
19992,47831,47832,47833,47834,47835,47836
19993,47837,1954,1953,47838,1957,47839
19994,47840,47841,47842,47843,47844,47845
19995,47846,47847,47848,47849,47850,47851
19996,47852,47853,47854,47855,47856,47857
19997,47858,47859,47860,47861,47862,47863
19998,47864,47865,47866,47867,47868,47869
19999,23655,17701,47870,25428,47871,47872
20000,962,47873,583,47874,47875,963
20001,583,47876,584,47877,47878,586
20002,47876,47879,584,47880,47881,47878
20003,47882,245,712,47883,714,47884
20004,47885,47886,47887,47888,47889,47890
20005,47891,47892,47893,47894,47895,47896
20006,47897,47898,47891,47899,47900,47901
20007,47902,47903,47882,47904,47905,47906
** ... 536 like lines cut

*ELEMENT, TYPE=S6, ELSET=ERibArray_WingGeom_Struct0_7
20544,48916,48917,48918,48919,48920,48921
20545,48922,48923,48924,48925,48926,48927
20546,25844,20361,48928,25846,48929,48930
20547,785,48931,48932,48933,48934,48935
20548,48932,48936,48917,48937,48938,48939
20549,48940,1474,1476,48941,1479,48942
20550,4904,1570,48943,14244,48944,48945
20551,48946,5669,6534,48947,14804,48948
20552,1569,2210,48949,10909,48950,48951
20553,1474,48952,2210,48953,48954,2213
20554,48955,48956,48957,48958,48959,48960
20555,5098,48961,3339,48962,48963,5101
20556,48964,48965,1001,48966,48967,48968
20557,48969,48970,48971,48972,48973,48974
20558,48975,48976,48977,48978,48979,48980
20559,48977,48981,971,48982,48983,48984
20560,986,48977,971,48985,48984,988
20561,804,993,48986,9551,48987,48988
20562,48989,48990,48964,48991,48992,48993
20563,48994,48995,48996,48997,48998,48999
** ... 556 like lines cut

*ELEMENT, TYPE=S6, ELSET=ERibArray_WingGeom_Struct0_8
21120,50055,50056,50057,50058,50059,50060
21121,813,50061,50062,50063,50064,50065
21122,50062,50066,50067,50068,50069,50070
21123,19861,19859,50071,19864,50072,50073
21124,50074,50075,50076,50077,50078,50079
21125,50080,50081,50082,50083,50084,50085
21126,50086,5185,5187,50087,5190,50088
21127,5276,50089,1741,50090,50091,6078
21128,50092,50093,50094,50095,50096,50097
21129,50098,50099,1037,50100,50101,50102
21130,50103,50104,50105,50106,50107,50108
21131,50109,50110,50111,50112,50113,50114
21132,50111,50115,1018,50116,50117,50118
21133,1039,50111,1018,50119,50118,1045
21134,1022,1017,50120,9596,50121,50122
21135,50123,50124,50098,50125,50126,50127
21136,50128,50129,50130,50131,50132,50133
21137,813,50129,50061,50134,50135,50063
21138,50120,50115,50110,50136,50137,50138
21139,50066,50062,50061,50068,50064,50139
** ... 550 like lines cut

*ELEMENT, TYPE=S6, ELSET=ERibArray_WingGeom_Struct0_9
21690,2021,1605,51182,3667,51183,51184
21691,51185,51186,51187,51188,51189,51190
21692,51185,51187,51191,51190,51192,51193
21693,51194,51186,51195,51196,51197,51198
21694,51199,51200,1596,51201,51202,51203
21695,1722,51204,1724,51205,51206,1727
21696,1724,51199,1596,51207,51203,5270
21697,5745,5431,51208,5747,51209,51210
21698,51211,51212,819,51213,51214,51215
21699,51216,51217,51218,51219,51220,51221
21700,51222,51223,1084,51224,51225,51226
21701,51227,51228,51229,51230,51231,51232
21702,51233,51234,51235,51236,51237,51238
21703,51239,51234,1057,51240,51241,51242
21704,1063,51239,1057,51243,51242,1065
21705,51234,51244,1070,51245,51246,51247
21706,51248,51249,51222,51250,51251,51252
21707,819,818,51253,821,51254,51255
21708,819,51212,51218,51214,51256,51257
21709,819,51253,51211,51255,51258,51215
** ... 550 like lines cut

*ELEMENT, TYPE=S6, ELSET=ERibArray_WingGeom_Struct0_10
22260,19251,22997,52309,25043,52310,52311
22261,900,52312,52313,52314,52315,52316
22262,52313,52317,52318,52319,52320,52321
22263,5287,5288,52322,5290,52323,52324
22264,52325,5687,5145,52326,14199,52327
22265,1697,1683,52328,1789,52329,52330
22266,1685,52331,1683,52332,52333,1688
22267,52325,52334,52335,52336,52337,52338
22268,52339,52340,52341,52342,52343,52344
22269,5027,52345,5025,52346,52347,5030
22270,52348,52349,1171,52350,52351,52352
22271,52353,52354,52355,52356,52357,52358
22272,52359,52360,52361,52362,52363,52364
22273,52354,52361,1157,52365,52366,52367
22274,1161,52354,1157,52368,52367,1163
22275,951,1152,52369,9579,52370,52371
22276,52372,52373,52348,52374,52375,52376
22277,52377,52378,52379,52380,52381,52382
22278,900,52378,52312,52383,52384,52314
22279,52369,52360,52359,52385,52362,52386
** ... 524 like lines cut

*ELEMENT, TYPE=S6, ELSET=ERibArray_WingGeom_Struct0_11
22804,53384,53385,53386,53387,53388,53389
22805,1423,1424,53390,1426,53391,53392
22806,53393,53394,53395,53396,53397,53398
22807,11522,53399,5271,53400,53401,14500
22808,53402,53403,53404,53405,53406,53407
22809,53408,53409,53410,53411,53412,53413
22810,53414,53415,1192,53416,53417,53418
22811,53419,53420,53421,53422,53423,53424
22812,53425,53426,53427,53428,53429,53430
22813,53431,53426,1178,53432,53433,53434
22814,1179,53431,1178,53435,53434,1181
22815,915,1185,53436,14758,53437,53438
22816,53439,53440,53414,53441,53442,53443
22817,53386,53444,53445,53446,53447,53448
22818,920,53449,53450,53451,53452,53453
22819,920,53444,53449,53454,53455,53451
22820,53436,53426,53425,53456,53428,53457
22821,53427,53420,53419,53458,53422,53459
22822,53460,53461,53462,53463,53464,53465
22823,53466,53467,53468,53469,53470,53471
** ... 540 like lines cut

*ELEMENT, TYPE=S6, ELSET=ERibArray_WingGeom_Struct0_12
23364,32875,18455,54491,32876,54492,54493
23365,54494,54495,18457,54496,54497,54498
23366,54491,54499,32875,54500,54501,54493
23367,54491,18455,54495,54492,54502,54503
23368,34209,34211,54504,34214,54505,54506
23369,54507,2257,2259,54508,2262,54509
23370,2299,2301,54510,2304,54511,54512
23371,54513,54514,54515,54516,54517,54518
23372,8405,2492,54519,15874,54520,54521
23373,2257,54522,2492,54523,54524,2494
23374,1834,1836,54525,1839,54526,54527
23375,54491,54528,54529,54530,54531,54532
23376,54533,54534,11083,54535,54536,54537
23377,1210,11083,54534,16209,54536,54538
23378,54534,54539,1210,54540,54541,54538
23379,11085,6402,54542,14741,54543,54544
23380,54545,54546,54547,54548,54549,54550
23381,925,54551,54552,54553,54554,54555
23382,54552,54556,54557,54558,54559,54560
23383,54561,54562,54563,54564,54565,54566
** ... 554 like lines cut

** Spar_Front WingGeom_Struct0
*ELEMENT, TYPE=S6, ELSET=ESpar_Front_WingGeom_Struct0_0
23938,343,55626,43462,55627,55628,55629
23939,55630,55631,1,55632,55633,55634
23940,18143,55635,17753,55636,55637,18144
23941,274,41212,275,55638,41226,277
23942,275,41212,303,41226,55639,305
23943,55640,55641,41212,55642,55643,55644
23944,55645,303,41212,55646,55639,55647
23945,55648,55645,41211,55649,55650,55651
23946,42368,42369,55652,42371,55653,55654
23947,55640,41212,274,55644,55638,55655
23948,42369,334,315,55656,335,42576
23949,343,43462,341,55629,43476,346
23950,341,43462,351,43476,55657,355
23951,43461,43462,55626,43464,55628,55658
23952,334,42369,55659,55656,55660,55661
23953,55662,55659,42368,55663,55664,55665
23954,43461,55666,43462,55667,55668,43464
23955,42528,55669,42524,55670,55671,42573
23956,42369,315,317,42576,320,55672
23957,55673,43664,43564,55674,43666,55675
** ... 1881 like lines cut

** Spar_Rear WingGeom_Struct0
*ELEMENT, TYPE=S6, ELSET=ESpar_Rear_WingGeom_Struct0_0
25839,59020,59021,3,59022,59023,59024
25840,80,41240,76,59025,41241,82
25841,76,41240,75,41241,59026,78
25842,85,42386,89,59027,42389,97
25843,42386,59028,89,59029,59030,42389
25844,208,203,44498,210,44500,59031
25845,204,44498,203,59032,44500,206
25846,46785,235,225,46788,237,59033
25847,46785,238,235,59034,243,46788
25848,2281,59035,6506,59036,59037,10131
25849,17427,17428,59038,17430,59039,59040
25850,17451,41341,17456,41524,59041,17458
25851,17451,17452,41341,17453,59042,41524
25852,59043,17775,17526,59044,26035,59045
25853,27869,59046,17468,59047,59048,27878
25854,17526,17517,42498,17779,42502,59049
25855,17824,43585,17815,59050,43796,17827
25856,17518,59051,17517,59052,59053,17519
25857,17815,43585,17549,43796,59054,17818
25858,9622,59055,3973,59056,59057,15513
** ... 1979 like lines cut


*ELEMENT, TYPE=S6, ELSET=ESpar_Upper_WingGeom_Struct0_0
27838,17381,17382,17383,17384,17385,17386
27839,17393,17394,17395,17396,17397,17398
27840,17395,2,17393,17399,17400,17398
27841,17394,17401,17395,17402,17403,17397
27842,17404,17405,17406,17407,17408,17409
27843,17410,17411,17412,17413,17414,17415
27844,17416,17417,17406,17418,17419,17420
27845,17421,17422,17423,17424,17425,17426
27846,17427,17428,17429,17430,17431,17432
27847,17394,17393,17433,17396,17434,17435
27848,17406,17417,17436,17419,17437,17438
27849,17417,17439,17440,17441,17442,17443
27850,17440,17436,17417,17444,17437,17443
27851,17439,17445,17440,17446,17447,17442
27852,17411,17410,17448,17413,17449,17450
27853,17451,17452,17410,17453,17454,17455
27854,17451,17410,17456,17455,17457,17458
27855,17456,17410,17412,17457,17415,17459
27856,17410,17452,17448,17454,17465,17449
27857,17416,17475,17417,17476,17477,17418
** ... 1231 like lines cut


*ELEMENT, TYPE=S6, ELSET=ESpar_Lower_WingGeom_Struct0_0
29089,7,8,9,10,11,12
29090,19,20,21,22,23,24
29091,25,26,27,28,29,30
29092,69,70,3,71,72,73
29093,74,75,76,77,78,79
29094,80,74,76,81,79,82
29095,83,84,85,86,87,88
29096,89,84,90,91,92,93
29097,90,84,94,92,95,96
29098,89,85,84,97,87,91
29099,94,98,90,99,100,96
29100,101,102,103,104,105,106
29101,102,107,103,108,109,105
29102,102,101,110,104,111,112
29103,107,102,113,108,114,115
29104,113,116,107,117,118,115
29105,110,119,102,120,121,112
29106,83,122,84,123,124,86
29107,80,182,74,183,184,81
29108,202,203,204,205,206,207
** ... 1236 like lines cut


*ELEMENT, TYPE=S6, ELSET=ETE_CAP_UPPER_WingGeom_Struct0_0
30345,17855,17856,17857,17858,17859,17860
30346,14,17855,15340,17861,17862,15342
30347,17866,17867,17868,17869,17870,17871
30348,37,36,17868,39,17872,17873
30349,17868,43,37,17874,15345,17873
30350,17875,17876,17877,17878,17879,17880
30351,17876,17881,17877,17882,17883,17879
30352,49,15328,17876,15329,17884,17885
30353,17876,53,49,17886,55,17885
30354,17887,17888,17867,17889,17890,17891
30355,18037,18038,18039,18040,18041,18042
30356,18037,18043,18038,18044,18045,18040
30357,18037,18046,127,18047,18048,18049
30358,12818,18043,127,18050,18051,15427
30359,18052,18053,18054,18055,18056,18057
30360,18053,18058,145,18059,18060,18061
30361,15346,18062,145,18063,18064,15347
30362,18053,18062,18054,18065,18066,18056
30363,18067,18068,18069,18070,18071,18072
30364,164,179,18073,181,18074,18075
** ... 543 like lines cut


*ELEMENT, TYPE=S6, ELSET=ETE_CAP_LOWER_WingGeom_Struct0_0
30908,13,14,15,16,17,18
30909,15,31,32,33,34,35
30910,36,37,38,39,40,41
30911,42,38,43,44,45,46
30912,47,48,49,50,51,52
30913,53,47,49,54,52,55
30914,56,48,57,58,59,60
30915,38,61,62,63,64,65
30916,61,38,66,63,67,68
30917,125,126,127,128,129,130
30918,125,127,131,130,132,133
30919,134,125,135,136,137,138
30920,139,126,134,140,141,142
30921,143,144,145,146,147,148
30922,149,144,150,151,152,153
30923,149,154,145,155,156,157
30924,158,154,150,159,160,161
30925,162,163,164,165,166,167
30926,168,169,170,171,172,173
30927,174,175,163,176,177,178
** ... 539 like lines cut

*BOUNDARY
1,1
1,2
1,3
2,2
3,2
3,3

** Properties WingGeom_Struct0

*SHELL SECTION, ELSET=ESkin_WingGeom_Struct0_0, MATERIAL=EPS30, ORIENTATION=OSkin_WingGeom_Struct0_0
0.002

*ORIENTATION, NAME=OSkin_WingGeom_Struct0_0, SYSTEM=RECTANGULAR
0.000000,1.000000,0.000000,0.0,0.0,1.0

*SHELL SECTION, ELSET=ERibArray_WingGeom_Struct0_0, MATERIAL=EPS30, ORIENTATION=ORibArray_WingGeom_Struct0_0
0.008

*ORIENTATION, NAME=ORibArray_WingGeom_Struct0_0, SYSTEM=RECTANGULAR
1.000000,0.000000,0.000000,0.0,0.0,1.0

*SHELL SECTION, ELSET=ERibArray_WingGeom_Struct0_1, MATERIAL=EPS30, ORIENTATION=ORibArray_WingGeom_Struct0_1
0.008

*ORIENTATION, NAME=ORibArray_WingGeom_Struct0_1, SYSTEM=RECTANGULAR
1.000000,0.000000,0.000000,0.0,0.0,1.0

*SHELL SECTION, ELSET=ERibArray_WingGeom_Struct0_2, MATERIAL=EPS30, ORIENTATION=ORibArray_WingGeom_Struct0_2
0.008

*ORIENTATION, NAME=ORibArray_WingGeom_Struct0_2, SYSTEM=RECTANGULAR
1.000000,0.000000,0.000000,0.0,0.0,1.0

*SHELL SECTION, ELSET=ERibArray_WingGeom_Struct0_3, MATERIAL=EPS30, ORIENTATION=ORibArray_WingGeom_Struct0_3
0.008

*ORIENTATION, NAME=ORibArray_WingGeom_Struct0_3, SYSTEM=RECTANGULAR
1.000000,0.000000,0.000000,0.0,0.0,1.0

*SHELL SECTION, ELSET=ERibArray_WingGeom_Struct0_4, MATERIAL=EPS30, ORIENTATION=ORibArray_WingGeom_Struct0_4
0.008

*ORIENTATION, NAME=ORibArray_WingGeom_Struct0_4, SYSTEM=RECTANGULAR
1.000000,0.000000,0.000000,0.0,0.0,1.0

*SHELL SECTION, ELSET=ERibArray_WingGeom_Struct0_5, MATERIAL=EPS30, ORIENTATION=ORibArray_WingGeom_Struct0_5
0.008

*ORIENTATION, NAME=ORibArray_WingGeom_Struct0_5, SYSTEM=RECTANGULAR
1.000000,0.000000,0.000000,0.0,0.0,1.0

*SHELL SECTION, ELSET=ERibArray_WingGeom_Struct0_6, MATERIAL=EPS30, ORIENTATION=ORibArray_WingGeom_Struct0_6
0.008

*ORIENTATION, NAME=ORibArray_WingGeom_Struct0_6, SYSTEM=RECTANGULAR
1.000000,0.000000,0.000000,0.0,0.0,1.0

*SHELL SECTION, ELSET=ERibArray_WingGeom_Struct0_7, MATERIAL=EPS30, ORIENTATION=ORibArray_WingGeom_Struct0_7
0.008

*ORIENTATION, NAME=ORibArray_WingGeom_Struct0_7, SYSTEM=RECTANGULAR
1.000000,0.000000,0.000000,0.0,0.0,1.0

*SHELL SECTION, ELSET=ERibArray_WingGeom_Struct0_8, MATERIAL=EPS30, ORIENTATION=ORibArray_WingGeom_Struct0_8
0.008

*ORIENTATION, NAME=ORibArray_WingGeom_Struct0_8, SYSTEM=RECTANGULAR
1.000000,0.000000,0.000000,0.0,0.0,1.0

*SHELL SECTION, ELSET=ERibArray_WingGeom_Struct0_9, MATERIAL=EPS30, ORIENTATION=ORibArray_WingGeom_Struct0_9
0.008

*ORIENTATION, NAME=ORibArray_WingGeom_Struct0_9, SYSTEM=RECTANGULAR
1.000000,0.000000,0.000000,0.0,0.0,1.0

*SHELL SECTION, ELSET=ERibArray_WingGeom_Struct0_10, MATERIAL=EPS30, ORIENTATION=ORibArray_WingGeom_Struct0_10
0.008

*ORIENTATION, NAME=ORibArray_WingGeom_Struct0_10, SYSTEM=RECTANGULAR
1.000000,0.000000,0.000000,0.0,0.0,1.0

*SHELL SECTION, ELSET=ERibArray_WingGeom_Struct0_11, MATERIAL=EPS30, ORIENTATION=ORibArray_WingGeom_Struct0_11
0.008

*ORIENTATION, NAME=ORibArray_WingGeom_Struct0_11, SYSTEM=RECTANGULAR
1.000000,0.000000,0.000000,0.0,0.0,1.0

*SHELL SECTION, ELSET=ERibArray_WingGeom_Struct0_12, MATERIAL=EPS30, ORIENTATION=ORibArray_WingGeom_Struct0_12
0.008

*ORIENTATION, NAME=ORibArray_WingGeom_Struct0_12, SYSTEM=RECTANGULAR
1.000000,0.000000,0.000000,0.0,0.0,1.0

*SHELL SECTION, ELSET=ESpar_Front_WingGeom_Struct0_0, MATERIAL=CFRP, ORIENTATION=OSpar_Front_WingGeom_Struct0_0
0.00141

*ORIENTATION, NAME=OSpar_Front_WingGeom_Struct0_0, SYSTEM=RECTANGULAR
0.000000,1.000000,0.000000,0.0,0.0,1.0

*SHELL SECTION, ELSET=ESpar_Rear_WingGeom_Struct0_0, MATERIAL=CFRP, ORIENTATION=OSpar_Rear_WingGeom_Struct0_0
0.00141

*ORIENTATION, NAME=OSpar_Rear_WingGeom_Struct0_0, SYSTEM=RECTANGULAR
0.000000,1.000000,0.000000,0.0,0.0,1.0

*SHELL SECTION, ELSET=ESpar_Upper_WingGeom_Struct0_0, MATERIAL=CFRP, ORIENTATION=OSpar_Upper_WingGeom_Struct0_0
0.00141

*ORIENTATION, NAME=OSpar_Upper_WingGeom_Struct0_0, SYSTEM=RECTANGULAR
0.000000,1.000000,0.000000,0.0,0.0,1.0

*SHELL SECTION, ELSET=ESpar_Lower_WingGeom_Struct0_0, MATERIAL=CFRP, ORIENTATION=OSpar_Lower_WingGeom_Struct0_0
0.00141

*ORIENTATION, NAME=OSpar_Lower_WingGeom_Struct0_0, SYSTEM=RECTANGULAR
0.000000,1.000000,0.000000,0.0,0.0,1.0

*SHELL SECTION, ELSET=ETE_CAP_UPPER_WingGeom_Struct0_0, MATERIAL=Balsa_LTR, ORIENTATION=OTE_CAP_UPPER_WingGeom_Struct0_0
0.001

*ORIENTATION, NAME=OTE_CAP_UPPER_WingGeom_Struct0_0, SYSTEM=RECTANGULAR
0.000000,1.000000,0.000000,0.0,0.0,1.0

*SHELL SECTION, ELSET=ETE_CAP_LOWER_WingGeom_Struct0_0, MATERIAL=Balsa_LTR, ORIENTATION=OTE_CAP_LOWER_WingGeom_Struct0_0
0.001

*ORIENTATION, NAME=OTE_CAP_LOWER_WingGeom_Struct0_0, SYSTEM=RECTANGULAR
0.000000,1.000000,0.000000,0.0,0.0,1.0


** Materials
*MATERIAL, NAME=Balsa_LTR
*DENSITY
160
*ELASTIC, TYPE=ENGINEERING CONSTANTS
3.74e+09, 5.61e+07, 1.7204e+08, 0.488, 0.229, 0.216848, 1.3838e+08, 2.0196e+08
1.87e+07
*EXPANSION, TYPE=ORTHO
0, 0, 0

*MATERIAL, NAME=EPS30
*DENSITY
30
*ELASTIC, TYPE=ISO
7.3e+08, 0.33
*EXPANSION, TYPE=ISO
2.34e-05

*MATERIAL, NAME=CFRP
*DENSITY
1500
*ELASTIC, TYPE=ISO
1.1e+11, 0.33
*EXPANSION, TYPE=ISO
1.3e-05

*ELSET,ELSET=EALL
ESkin_WingGeom_Struct0_0,ERibArray_WingGeom_Struct0_0,ERibArray_WingGeom_Struct0_1,ERibArray_WingGeom_Struct0_2,ERibArray_WingGeom_Struct0_3,ERibArray_WingGeom_Struct0_4,ERibArray_WingGeom_Struct0_5,ERibArray_WingGeom_Struct0_6,ERibArray_WingGeom_Struct0_7,ERibArray_WingGeom_Struct0_8,ERibArray_WingGeom_Struct0_9,ERibArray_WingGeom_Struct0_10,ERibArray_WingGeom_Struct0_11,ERibArray_WingGeom_Struct
ESpar_Upper_WingGeom_Struct0_0,ESpar_Lower_WingGeom_Struct0_0,ETE_CAP_UPPER_WingGeom_Struct0_0,ETE_CAP_LOWER_WingGeom_Struct0_0,

*STEP
*STATIC
*CLOAD
1210,2,5000
18457,1,-100
18457,2,-5000
18457,3,130
925,1,100
925,2,5000
18501,2,-5000
18501,3,130
41540,1,-0.00164878
41437,1,-0.00090454
41519,1,-0.00015512
41518,1,0.000569
41580,1,0.00128295
41570,1,0.00198816
41574,1,0.00261706
41571,1,0.00261821
41708,1,0.00318544
41502,1,0.00382556
41504,1,0.00431697
41418,1,0.00491491
** ... 2484 like lines cut
*DLOAD
EALL,GRAV,9.81,0.,0.,-1.
2,P,-32.55773184
3,P,-12.71199744
4,P,-53.63712
5,P,-12.71199744
6,P,-12.71199744
7,P,-12.71199744
8,P,-12.71199744
9,P,-12.71199744
10,P,-12.71199744
11,P,-51.38436096
12,P,-53.63712
13,P,2.36003328
14,P,-16.19841024
15,P,-16.19841024
16,P,-16.19841024
17,P,-16.19841024
18,P,-16.19841024
19,P,-32.55773184
20,P,-16.19841024
21,P,-32.55773184
** ... 19115 like lines cut
*NODE FILE
U
*EL FILE
S,E
*END STEP
